Program Version,EnergyPlus, Version 8.9.0-497bb3e71c, YMD=2018.06.06 17:13
! <Version>, Version ID
 Version, 8.9
! <Timesteps per Hour>, #TimeSteps, Minutes per TimeStep {minutes}
 Timesteps per Hour,  6, 10
! <System Convergence Limits>, Minimum System TimeStep {minutes}, Max HVAC Iterations, Minimum Plant Iterations, Maximum Plant Iterations
 System Convergence Limits, 1, 20, 2, 8
! <Simulation Control>, Do Zone Sizing, Do System Sizing, Do Plant Sizing, Do Design Days, Do Weather Simulation, Do HVAC Sizing Simulation
 Simulation Control, Yes, Yes, Yes, No, Yes, No
! <Output Reporting Tolerances>, Tolerance for Time Heating Setpoint Not Met, Tolerance for Zone Cooling Setpoint Not Met Time
 Output Reporting Tolerances, 0.200, 0.200, 
! <Site:GroundTemperature:BuildingSurface>,Jan{C},Feb{C},Mar{C},Apr{C},May{C},Jun{C},Jul{C},Aug{C},Sep{C},Oct{C},Nov{C},Dec{C}
 Site:GroundTemperature:BuildingSurface,  20.38,  20.28,  20.43,  20.62,  20.85,  22.92,  23.46,  23.60,  23.62,  21.54,  20.98,  20.57
! <Site:GroundTemperature:FCfactorMethod>,Jan{C},Feb{C},Mar{C},Apr{C},May{C},Jun{C},Jul{C},Aug{C},Sep{C},Oct{C},Nov{C},Dec{C}
 Site:GroundTemperature:FCfactorMethod,  -0.60,   1.34,   5.12,   8.69,  15.46,  19.02,  20.00,  18.20,  14.02,   8.83,   3.71,   0.32
! <Site:GroundTemperature:Shallow>,Jan{C},Feb{C},Mar{C},Apr{C},May{C},Jun{C},Jul{C},Aug{C},Sep{C},Oct{C},Nov{C},Dec{C}
 Site:GroundTemperature:Shallow,  13.00,  13.00,  13.00,  13.00,  13.00,  13.00,  13.00,  13.00,  13.00,  13.00,  13.00,  13.00
! <Site:GroundTemperature:Deep>,Jan{C},Feb{C},Mar{C},Apr{C},May{C},Jun{C},Jul{C},Aug{C},Sep{C},Oct{C},Nov{C},Dec{C}
 Site:GroundTemperature:Deep,  16.00,  16.00,  16.00,  16.00,  16.00,  16.00,  16.00,  16.00,  16.00,  16.00,  16.00,  16.00
! <Site:GroundReflectance>,Jan{dimensionless},Feb{dimensionless},Mar{dimensionless},Apr{dimensionless},May{dimensionless},Jun{dimensionless},Jul{dimensionless},Aug{dimensionless},Sep{dimensionless},Oct{dimensionless},Nov{dimensionless},Dec{dimensionless}
 Site:GroundReflectance,  0.20,  0.20,  0.20,  0.20,  0.20,  0.20,  0.20,  0.20,  0.20,  0.20,  0.20,  0.20
! <Site:GroundReflectance:SnowModifier>, Normal, Daylighting {dimensionless}
 Site:GroundReflectance:SnowModifier,   1.000,   1.000
! <Site:GroundReflectance:Snow>,Jan{dimensionless},Feb{dimensionless},Mar{dimensionless},Apr{dimensionless},May{dimensionless},Jun{dimensionless},Jul{dimensionless},Aug{dimensionless},Sep{dimensionless},Oct{dimensionless},Nov{dimensionless},Dec{dimensionless}
 Site:GroundReflectance:Snow,  0.20,  0.20,  0.20,  0.20,  0.20,  0.20,  0.20,  0.20,  0.20,  0.20,  0.20,  0.20
! <Site:GroundReflectance:Snow:Daylighting>,Jan{dimensionless},Feb{dimensionless},Mar{dimensionless},Apr{dimensionless},May{dimensionless},Jun{dimensionless},Jul{dimensionless},Aug{dimensionless},Sep{dimensionless},Oct{dimensionless},Nov{dimensionless},Dec{dimensionless}
 Site:GroundReflectance:Snow:Daylighting,  0.20,  0.20,  0.20,  0.20,  0.20,  0.20,  0.20,  0.20,  0.20,  0.20,  0.20,  0.20
! <Environment:Weather Station>,Wind Sensor Height Above Ground {m},Wind Speed Profile Exponent {},Wind Speed Profile Boundary Layer Thickness {m},Air Temperature Sensor Height Above Ground {m},Wind Speed Modifier Coefficient-Internal,Temperature Modifier Coefficient-Internal
Environment:Weather Station,10.000,0.140,270.000,1.500,1.586,9.750E-003
! <Site:Location>, Location Name, Latitude {N+/S- Deg}, Longitude {E+/W- Deg},  Time Zone Number {GMT+/-}, Elevation {m},  Standard Pressure at Elevation {Pa}, Standard RhoAir at Elevation
Site:Location,Denver Centennial  Golden   Nr CO USA TMY3 WMO#=724666,39.74,-105.18,-7.00,1829.00,81198,0.9651
! <Building Information>, Building Name,North Axis {deg},Terrain,  Loads Convergence Tolerance Value,Temperature Convergence Tolerance Value,  Solar Distribution,Maximum Number of Warmup Days,Minimum Number of Warmup Days
 Building Information,90.1-2010-SmallOffice-ASHRAE 169-2006-2A created: 2016-11-30 13:33:36 -0700,0.000,City,4.00000E-002,0.20000,FullInteriorAndExterior,25,6
! <Inside Convection Algorithm>, Algorithm {Simple | TARP | CeilingDiffuser | AdaptiveConvectionAlgorithm}
Inside Convection Algorithm,TARP
! <Outside Convection Algorithm>, Algorithm {SimpleCombined | TARP | MoWitt | DOE-2 | AdaptiveConvectionAlgorithm}
Outside Convection Algorithm,TARP
! <Sky Radiance Distribution>, Value {Anisotropic}
Sky Radiance Distribution,Anisotropic
! <Zone Air Solution Algorithm>, Value {ThirdOrderBackwardDifference | AnalyticalSolution | EulerMethod}
 Zone Air Solution Algorithm, ThirdOrderBackwardDifference
! <Zone Air Carbon Dioxide Balance Simulation>, Simulation {Yes/No}, Carbon Dioxide Concentration
 Zone Air Carbon Dioxide Balance Simulation, No,N/A
! <Zone Air Generic Contaminant Balance Simulation>, Simulation {Yes/No}, Generic Contaminant Concentration
 Zone Air Generic Contaminant Balance Simulation, No,N/A
! <Zone Air Mass Flow Balance Simulation>, Enforce Mass Balance, Adjust Zone Mixing, Adjust Zone Infiltration {AddInfiltration | AdjustInfiltration | None}, Infiltration Zones {MixingSourceZonesOnly | AllZones}
 Zone Air Mass Flow Balance Simulation, No,N/A,N/A,N/A
! <HVACSystemRootFindingAlgorithm>, Value {RegulaFalsi | Bisection | BisectionThenRegulaFalsi | RegulaFalsiThenBisection}
 HVACSystemRootFindingAlgorithm, RegulaFalsi
! <Environment:Site Atmospheric Variation>,Wind Speed Profile Exponent {},Wind Speed Profile Boundary Layer Thickness {m},Air Temperature Gradient Coefficient {K/m}
Environment:Site Atmospheric Variation,0.330,460.000,6.500000E-003
! <Surface Geometry>,Starting Corner,Vertex Input Direction,Coordinate System,Daylight Reference Point Coordinate System,Rectangular (Simple) Surface Coordinate System
 Surface Geometry,UpperLeftCorner,Counterclockwise,RelativeCoordinateSystem,RelativeCoordinateSystem,RelativeToZoneOrigin
! <Surface Heat Transfer Algorithm>, Value {CTF - ConductionTransferFunction | EMPD - MoisturePenetrationDepthConductionTransferFunction | CondFD - ConductionFiniteDifference | HAMT - CombinedHeatAndMoistureFiniteElement} - Description,Inside Surface Max Temperature Limit{C}, Surface Convection Coefficient Lower Limit {W/m2-K}, Surface Convection Coefficient Upper Limit {W/m2-K}
Surface Heat Transfer Algorithm, CTF - ConductionTransferFunction,200,0.10,1000.0
! <Shading Summary>, Number of Fixed Detached Shades, Number of Building Detached Shades, Number of Attached Shades
 Shading Summary,0,0,0
! <Zone Summary>, Number of Zones, Number of Zone Surfaces, Number of SubSurfaces
 Zone Summary,6,69,21
! <Zone Information>,Zone Name,North Axis {deg},Origin X-Coordinate {m},Origin Y-Coordinate {m},Origin Z-Coordinate {m},Centroid X-Coordinate {m},Centroid Y-Coordinate {m},Centroid Z-Coordinate {m},Type,Zone Multiplier,Zone List Multiplier,Minimum X {m},Maximum X {m},Minimum Y {m},Maximum Y {m},Minimum Z {m},Maximum Z {m},Ceiling Height {m},Volume {m3},Zone Inside Convection Algorithm {Simple-Detailed-CeilingDiffuser-TrombeWall},Zone Outside Convection Algorithm {Simple-Detailed-Tarp-MoWitt-DOE-2-BLAST}, Floor Area {m2},Exterior Gross Wall Area {m2},Exterior Net Wall Area {m2},Exterior Window Area {m2}, Number of Surfaces, Number of SubSurfaces, Number of Shading SubSurfaces,  Part of Total Building Area
 Zone Information, ATTIC ZN,0.0,0.00,0.00,0.00,13.85,9.23,3.70,1,1,1,-0.60,28.29,-0.60,19.06,3.05,6.33,1.64,720.19,TARP,TARP,567.98,0.00,0.00,0.00,13,0,0,No
 Zone Information, CORE_ZN ZN,0.0,0.00,0.00,0.00,13.85,9.23,1.53,1,1,1,5.00,22.69,5.00,13.46,0.00,3.05,3.05,456.46,TARP,TARP,149.66,0.00,0.00,0.00,6,0,0,Yes
 Zone Information, PERIMETER_ZN_1 ZN,0.0,0.00,0.00,0.00,13.85,2.21,1.53,1,1,1,0.00,27.69,0.00,5.00,0.00,3.05,3.05,346.02,TARP,TARP,113.45,84.45,63.82,16.73,6,7,0,Yes
 Zone Information, PERIMETER_ZN_2 ZN,0.0,0.00,0.00,0.00,25.64,9.23,1.53,1,1,1,22.69,27.69,0.00,18.46,0.00,3.05,3.05,205.27,TARP,TARP,67.30,56.30,45.15,11.16,6,4,0,Yes
 Zone Information, PERIMETER_ZN_3 ZN,0.0,0.00,0.00,0.00,13.85,16.25,1.53,1,1,1,0.00,27.69,13.46,18.46,0.00,3.05,3.05,346.02,TARP,TARP,113.45,84.45,67.72,16.73,6,6,0,Yes
 Zone Information, PERIMETER_ZN_4 ZN,0.0,0.00,0.00,0.00,2.05,9.23,1.53,1,1,1,0.00,5.00,0.00,18.46,0.00,3.05,3.05,205.27,TARP,TARP,67.30,56.30,45.15,11.16,6,4,0,Yes
! <Zone Internal Gains Nominal>,Zone Name, Floor Area {m2},# Occupants,Area per Occupant {m2/person},Occupant per Area {person/m2},Interior Lighting {W/m2},Electric Load {W/m2},Gas Load {W/m2},Other Load {W/m2},Hot Water Eq {W/m2},Steam Equipment {W/m2},Sum Loads per Area {W/m2},Outdoor Controlled Baseboard Heat
 Zone Internal Gains Nominal, ATTIC ZN,567.98,0.0,N/A,0.000,0.000,0.000,0.000,0.000,0.000,0.000,0.000,No
 Zone Internal Gains Nominal, CORE_ZN ZN,149.66,9.0,16.590,6.028E-002,9.688,6.781,0.000,0.000,0.000,0.000,16.469,No
 Zone Internal Gains Nominal, PERIMETER_ZN_1 ZN,113.45,6.8,16.590,6.028E-002,9.688,6.781,0.000,0.000,0.000,0.000,16.469,No
 Zone Internal Gains Nominal, PERIMETER_ZN_2 ZN,67.30,4.1,16.590,6.028E-002,9.688,6.781,0.000,0.000,0.000,0.000,16.469,No
 Zone Internal Gains Nominal, PERIMETER_ZN_3 ZN,113.45,6.8,16.590,6.028E-002,9.688,6.781,0.000,0.000,0.000,0.000,16.469,No
 Zone Internal Gains Nominal, PERIMETER_ZN_4 ZN,67.30,4.1,16.590,6.028E-002,9.688,6.781,0.000,0.000,0.000,0.000,16.469,No
! <People Internal Gains Nominal>,Name,Schedule Name,Zone Name,Zone Floor Area {m2},# Zone Occupants,Number of People {},People/Floor Area {person/m2},Floor Area per person {m2/person},Fraction Radiant,Fraction Convected,Sensible Fraction Calculation,Activity level,ASHRAE 55 Warnings,Carbon Dioxide Generation Rate,Nominal Minimum Number of People,Nominal Maximum Number of People
 People Internal Gains Nominal, CORE_ZN ZN OFFICE WHOLEBUILDING - SM OFFICE PEOPLE,OFFICESMALL BLDG_OCC_SCH,CORE_ZN ZN,149.66,9.0,9.0,6.028E-002,16.590,0.300,0.700,AutoCalculate,OFFICESMALL ACTIVITY_SCH,No,3.8200E-008,0,9
 People Internal Gains Nominal, PERIMETER_ZN_1 ZN OFFICE WHOLEBUILDING - SM OFFICE PEOPLE,OFFICESMALL BLDG_OCC_SCH,PERIMETER_ZN_1 ZN,113.45,6.8,6.8,6.028E-002,16.590,0.300,0.700,AutoCalculate,OFFICESMALL ACTIVITY_SCH,No,3.8200E-008,0,7
 People Internal Gains Nominal, PERIMETER_ZN_2 ZN OFFICE WHOLEBUILDING - SM OFFICE PEOPLE,OFFICESMALL BLDG_OCC_SCH,PERIMETER_ZN_2 ZN,67.30,4.1,4.1,6.028E-002,16.590,0.300,0.700,AutoCalculate,OFFICESMALL ACTIVITY_SCH,No,3.8200E-008,0,4
 People Internal Gains Nominal, PERIMETER_ZN_3 ZN OFFICE WHOLEBUILDING - SM OFFICE PEOPLE,OFFICESMALL BLDG_OCC_SCH,PERIMETER_ZN_3 ZN,113.45,6.8,6.8,6.028E-002,16.590,0.300,0.700,AutoCalculate,OFFICESMALL ACTIVITY_SCH,No,3.8200E-008,0,7
 People Internal Gains Nominal, PERIMETER_ZN_4 ZN OFFICE WHOLEBUILDING - SM OFFICE PEOPLE,OFFICESMALL BLDG_OCC_SCH,PERIMETER_ZN_4 ZN,67.30,4.1,4.1,6.028E-002,16.590,0.300,0.700,AutoCalculate,OFFICESMALL ACTIVITY_SCH,No,3.8200E-008,0,4
! <Lights Internal Gains Nominal>,Name,Schedule Name,Zone Name,Zone Floor Area {m2},# Zone Occupants,Lighting Level {W},Lights/Floor Area {W/m2},Lights per person {W/person},Fraction Return Air,Fraction Radiant,Fraction Short Wave,Fraction Convected,Fraction Replaceable,End-Use Category,Nominal Minimum Lighting Level {W},Nominal Maximum Lighting Level {W}
 Lights Internal Gains Nominal, CORE_ZN ZN OFFICE WHOLEBUILDING - SM OFFICE LIGHTS,OFFICESMALL BLDG_LIGHT_SCH,CORE_ZN ZN,149.66,9.0,1449.809,9.688,160.714,0.000,0.700,0.200,0.100,1.000,General,0.000,1449.809
 Lights Internal Gains Nominal, PERIMETER_ZN_1 ZN OFFICE WHOLEBUILDING - SM OFFICE LIGHTS,OFFICESMALL BLDG_LIGHT_SCH,PERIMETER_ZN_1 ZN,113.45,6.8,1099.049,9.688,160.714,0.000,0.700,0.200,0.100,1.000,General,0.000,1099.049
 Lights Internal Gains Nominal, PERIMETER_ZN_2 ZN OFFICE WHOLEBUILDING - SM OFFICE LIGHTS,OFFICESMALL BLDG_LIGHT_SCH,PERIMETER_ZN_2 ZN,67.30,4.1,651.970,9.688,160.714,0.000,0.700,0.200,0.100,1.000,General,0.000,651.970
 Lights Internal Gains Nominal, PERIMETER_ZN_3 ZN OFFICE WHOLEBUILDING - SM OFFICE LIGHTS,OFFICESMALL BLDG_LIGHT_SCH,PERIMETER_ZN_3 ZN,113.45,6.8,1099.049,9.688,160.714,0.000,0.700,0.200,0.100,1.000,General,0.000,1099.049
 Lights Internal Gains Nominal, PERIMETER_ZN_4 ZN OFFICE WHOLEBUILDING - SM OFFICE LIGHTS,OFFICESMALL BLDG_LIGHT_SCH,PERIMETER_ZN_4 ZN,67.30,4.1,651.970,9.688,160.714,0.000,0.700,0.200,0.100,1.000,General,0.000,651.970
! <ElectricEquipment Internal Gains Nominal>,Name,Schedule Name,Zone Name,Zone Floor Area {m2},# Zone Occupants,Equipment Level {W},Equipment/Floor Area {W/m2},Equipment per person {W/person},Fraction Latent,Fraction Radiant,Fraction Lost,Fraction Convected,End-Use SubCategory,Nominal Minimum Equipment Level {W},Nominal Maximum Equipment Level {W}
 ElectricEquipment Internal Gains Nominal, CORE_ZN ZN OFFICE WHOLEBUILDING - SM OFFICE ELEC EQUIP,OFFICESMALL BLDG_EQUIP_SCH,CORE_ZN ZN,149.66,9.0,1014.866,6.781,112.500,0.000,0.500,0.000,0.500,General,0.000,1014.866
 ElectricEquipment Internal Gains Nominal, PERIMETER_ZN_1 ZN OFFICE WHOLEBUILDING - SM OFFICE ELEC EQUIP,OFFICESMALL BLDG_EQUIP_SCH,PERIMETER_ZN_1 ZN,113.45,6.8,769.334,6.781,112.500,0.000,0.500,0.000,0.500,General,0.000,769.334
 ElectricEquipment Internal Gains Nominal, PERIMETER_ZN_2 ZN OFFICE WHOLEBUILDING - SM OFFICE ELEC EQUIP,OFFICESMALL BLDG_EQUIP_SCH,PERIMETER_ZN_2 ZN,67.30,4.1,456.379,6.781,112.500,0.000,0.500,0.000,0.500,General,0.000,456.379
 ElectricEquipment Internal Gains Nominal, PERIMETER_ZN_3 ZN OFFICE WHOLEBUILDING - SM OFFICE ELEC EQUIP,OFFICESMALL BLDG_EQUIP_SCH,PERIMETER_ZN_3 ZN,113.45,6.8,769.334,6.781,112.500,0.000,0.500,0.000,0.500,General,0.000,769.334
 ElectricEquipment Internal Gains Nominal, PERIMETER_ZN_4 ZN OFFICE WHOLEBUILDING - SM OFFICE ELEC EQUIP,OFFICESMALL BLDG_EQUIP_SCH,PERIMETER_ZN_4 ZN,67.30,4.1,456.379,6.781,112.500,0.000,0.500,0.000,0.500,General,0.000,456.379
! <Shadowing/Sun Position Calculations Annual Simulations>, Calculation Method, Value {days}, Allowable Number Figures in Shadow Overlap {}, Polygon Clipping Algorithm, Sky Diffuse Modeling Algorithm, External Shading Calculation Method, Output External Shading Calculation Results, Disable Self-Shading Within Shading Zone Groups, Disable Self-Shading From Shading Zone Groups to Other Zones
Shadowing/Sun Position Calculations Annual Simulations,AverageOverDaysInFrequency,30,15000,SutherlandHodgman,SimpleSkyDiffuseModeling,InternalCalculation,No,No,No
! <Water Heater Information>,Type,Name,Volume {m3},Maximum Capacity {W},Standard Rated Recovery Efficiency, Standard Rated Energy Factor
! <ZoneInfiltration Airflow Stats Nominal>,Name,Schedule Name,Zone Name, Zone Floor Area {m2}, # Zone Occupants,Design Volume Flow Rate {m3/s},Volume Flow Rate/Floor Area {m3/s/m2},Volume Flow Rate/Exterior Surface Area {m3/s/m2},ACH - Air Changes per Hour,Equation A - Constant Term Coefficient {},Equation B - Temperature Term Coefficient {1/C},Equation C - Velocity Term Coefficient {s/m}, Equation D - Velocity Squared Term Coefficient {s2/m2}
 ZoneInfiltration Airflow Stats Nominal, PERIMETER_ZN_1 INFILTRATION,OFFICESMALL INFIL_QUARTER_ON_SCH,PERIMETER_ZN_1 ZN,113.45,6.8,5.033E-002,4.436E-004,5.696E-004,0.524,0.000,0.000,0.224,0.000
 ZoneInfiltration Airflow Stats Nominal, PERIMETER_ZN_2 INFILTRATION,OFFICESMALL INFIL_QUARTER_ON_SCH,PERIMETER_ZN_2 ZN,67.30,4.1,3.207E-002,4.765E-004,5.696E-004,0.562,0.000,0.000,0.224,0.000
 ZoneInfiltration Airflow Stats Nominal, PERIMETER_ZN_3 INFILTRATION,OFFICESMALL INFIL_QUARTER_ON_SCH,PERIMETER_ZN_3 ZN,113.45,6.8,4.810E-002,4.240E-004,5.696E-004,0.500,0.000,0.000,0.224,0.000
 ZoneInfiltration Airflow Stats Nominal, PERIMETER_ZN_4 INFILTRATION,OFFICESMALL INFIL_QUARTER_ON_SCH,PERIMETER_ZN_4 ZN,67.30,4.1,3.207E-002,4.765E-004,5.696E-004,0.562,0.000,0.000,0.224,0.000
! <AirFlow Model>, Simple
 AirFlow Model, Simple
! <RoomAir Model>, Zone Name, Mixing/Mundt/UCSDDV/UCSDCV/UCSDUFI/UCSDUFE/User Defined
RoomAir Model,ATTIC ZN,Mixing/Well-Stirred
RoomAir Model,CORE_ZN ZN,Mixing/Well-Stirred
RoomAir Model,PERIMETER_ZN_1 ZN,Mixing/Well-Stirred
RoomAir Model,PERIMETER_ZN_2 ZN,Mixing/Well-Stirred
RoomAir Model,PERIMETER_ZN_3 ZN,Mixing/Well-Stirred
RoomAir Model,PERIMETER_ZN_4 ZN,Mixing/Well-Stirred
! <AirflowNetwork Model:Control>, No Multizone or Distribution/Multizone with Distribution/Multizone without Distribution/Multizone with Distribution only during Fan Operation
AirflowNetwork Model:Control,NoMultizoneOrDistribution
! <Zone Volume Capacitance Multiplier>, Sensible Heat Capacity Multiplier, Moisture Capacity Multiplier, Carbon Dioxide Capacity Multiplier, Generic Contaminant Capacity Multiplier
Zone Volume Capacitance Multiplier,   1.000 ,   1.000,   1.000,   1.000
! <Load Timesteps in Zone Design Calculation Averaging Window>, Value
 Load Timesteps in Zone Design Calculation Averaging Window,    6
! <Heating Sizing Factor Information>, Sizing Factor ID, Value
 Heating Sizing Factor Information, Global,   1.2000    
 Heating Sizing Factor Information, Zone CORE_ZN ZN,   1.2000    
 Heating Sizing Factor Information, Zone PERIMETER_ZN_1 ZN,   1.2000    
 Heating Sizing Factor Information, Zone PERIMETER_ZN_2 ZN,   1.2000    
 Heating Sizing Factor Information, Zone PERIMETER_ZN_3 ZN,   1.2000    
 Heating Sizing Factor Information, Zone PERIMETER_ZN_4 ZN,   1.2000    
! <Cooling Sizing Factor Information>, Sizing Factor ID, Value
 Cooling Sizing Factor Information, Global,   1.2000    
 Cooling Sizing Factor Information, Zone CORE_ZN ZN,   1.2000    
 Cooling Sizing Factor Information, Zone PERIMETER_ZN_1 ZN,   1.2000    
 Cooling Sizing Factor Information, Zone PERIMETER_ZN_2 ZN,   1.2000    
 Cooling Sizing Factor Information, Zone PERIMETER_ZN_3 ZN,   1.2000    
 Cooling Sizing Factor Information, Zone PERIMETER_ZN_4 ZN,   1.2000    
! <Zone Sizing Information>, Zone Name, Load Type, Calc Des Load {W}, User Des Load {W}, Calc Des Air Flow Rate {m3/s}, User Des Air Flow Rate {m3/s}, Design Day Name, Date/Time of Peak, Temperature at Peak {C}, Humidity Ratio at Peak {kgWater/kgDryAir}, Floor Area {m2}, # Occupants, Calc Outdoor Air Flow Rate {m3/s}, Calc DOAS Heat Addition Rate {W}
 Zone Sizing Information, CORE_ZN ZN, Heating, 1532.27126, 1838.72551, 8.24256E-002, 9.89108E-002, HOUSTON BUSH INTERCONTINENTAL ANN HTG 99.6% CONDNS DB, 1/21 24:00:00, -1.60000, 4.12758E-003, 149.65740, 9.02103, 0.00000, 0.00000
 Zone Sizing Information, PERIMETER_ZN_1 ZN, Heating, 3210.60374, 3852.72449, 0.17270, 0.20724, HOUSTON BUSH INTERCONTINENTAL ANN HTG 99.6% CONDNS DB, 1/21 24:00:00, -1.60000, 4.12758E-003, 113.45000, 6.83853, 0.00000, 0.00000
 Zone Sizing Information, PERIMETER_ZN_2 ZN, Heating, 1996.46550, 2395.75860, 0.10739, 0.12887, HOUSTON BUSH INTERCONTINENTAL ANN HTG 99.6% CONDNS DB, 1/21 24:00:00, -1.60000, 4.12758E-003, 67.30000, 4.05670, 0.00000, 0.00000
 Zone Sizing Information, PERIMETER_ZN_3 ZN, Heating, 3062.09460, 3674.51352, 0.16472, 0.19766, HOUSTON BUSH INTERCONTINENTAL ANN HTG 99.6% CONDNS DB, 1/21 24:00:00, -1.60000, 4.12758E-003, 113.45000, 6.83853, 0.00000, 0.00000
 Zone Sizing Information, PERIMETER_ZN_4 ZN, Heating, 1996.46550, 2395.75860, 0.10739, 0.12887, HOUSTON BUSH INTERCONTINENTAL ANN HTG 99.6% CONDNS DB, 1/21 24:00:00, -1.60000, 4.12758E-003, 67.30000, 4.05670, 0.00000, 0.00000
! <System Sizing Information>, System Name, Load Type, Peak Load Kind, User Design Capacity, Calc Des Air Flow Rate [m3/s], User Des Air Flow Rate [m3/s], Design Day Name, Date/Time of Peak
 System Sizing Information, CORE_ZN ZN PSZ-AC-1, Cooling, Sensible, 0.00, 0.00000, 0.00000, ,  00:00:00
 System Sizing Information, CORE_ZN ZN PSZ-AC-1, Heating, Sensible, 1811.94, 9.89108E-002, 9.89108E-002, HOUSTON BUSH INTERCONTINENTAL ANN HTG 99.6% CONDNS DB, 1/21 24:00:00
 System Sizing Information, PERIMETER_ZN_1 ZN PSZ-AC-2, Cooling, Sensible, 0.00, 0.00000, 0.00000, ,  00:00:00
 System Sizing Information, PERIMETER_ZN_1 ZN PSZ-AC-2, Heating, Sensible, 3796.61, 0.20724, 0.20724, HOUSTON BUSH INTERCONTINENTAL ANN HTG 99.6% CONDNS DB, 1/21 24:00:00
 System Sizing Information, PERIMETER_ZN_2 ZN PSZ-AC-3, Cooling, Sensible, 0.00, 0.00000, 0.00000, ,  00:00:00
 System Sizing Information, PERIMETER_ZN_2 ZN PSZ-AC-3, Heating, Sensible, 2360.86, 0.12887, 0.12887, HOUSTON BUSH INTERCONTINENTAL ANN HTG 99.6% CONDNS DB, 1/21 24:00:00
 System Sizing Information, PERIMETER_ZN_3 ZN PSZ-AC-4, Cooling, Sensible, 0.00, 0.00000, 0.00000, ,  00:00:00
 System Sizing Information, PERIMETER_ZN_3 ZN PSZ-AC-4, Heating, Sensible, 3620.99, 0.19766, 0.19766, HOUSTON BUSH INTERCONTINENTAL ANN HTG 99.6% CONDNS DB, 1/21 24:00:00
 System Sizing Information, PERIMETER_ZN_4 ZN PSZ-AC-5, Cooling, Sensible, 0.00, 0.00000, 0.00000, ,  00:00:00
 System Sizing Information, PERIMETER_ZN_4 ZN PSZ-AC-5, Heating, Sensible, 2360.86, 0.12887, 0.12887, HOUSTON BUSH INTERCONTINENTAL ANN HTG 99.6% CONDNS DB, 1/21 24:00:00
! <Component Sizing Information>, Component Type, Component Name, Input Field Description, Value
 Component Sizing Information, AirTerminal:SingleDuct:Uncontrolled, CORE_ZN ZN PSZ-AC-1 DIFFUSER, Design Size Maximum Air Flow Rate [m3/s], 9.89108E-002
 Component Sizing Information, AirTerminal:SingleDuct:Uncontrolled, PERIMETER_ZN_1 ZN PSZ-AC-2 DIFFUSER, Design Size Maximum Air Flow Rate [m3/s], 0.20724
 Component Sizing Information, AirTerminal:SingleDuct:Uncontrolled, PERIMETER_ZN_2 ZN PSZ-AC-3 DIFFUSER, Design Size Maximum Air Flow Rate [m3/s], 0.12887
 Component Sizing Information, AirTerminal:SingleDuct:Uncontrolled, PERIMETER_ZN_3 ZN PSZ-AC-4 DIFFUSER, Design Size Maximum Air Flow Rate [m3/s], 0.19766
 Component Sizing Information, AirTerminal:SingleDuct:Uncontrolled, PERIMETER_ZN_4 ZN PSZ-AC-5 DIFFUSER, Design Size Maximum Air Flow Rate [m3/s], 0.12887
 Component Sizing Information, AirLoopHVAC, CORE_ZN ZN PSZ-AC-1, Sum of Air Terminal Maximum Heating Flow Rates [m3/s], 9.89108E-002
 Component Sizing Information, AirLoopHVAC, CORE_ZN ZN PSZ-AC-1, Sum of Air Terminal Minimum Heating Flow Rates [m3/s], 9.89108E-002
 Component Sizing Information, AirLoopHVAC, CORE_ZN ZN PSZ-AC-1, Sum of Air Terminal Maximum Flow Rates [m3/s], 9.89108E-002
 Component Sizing Information, AirLoopHVAC, CORE_ZN ZN PSZ-AC-1, Adjusted Heating Design Air Flow Rate [m3/s], 9.89108E-002
 Component Sizing Information, AirLoopHVAC, CORE_ZN ZN PSZ-AC-1, Adjusted Cooling Design Air Flow Rate [m3/s], 9.89108E-002
 Component Sizing Information, AirLoopHVAC, CORE_ZN ZN PSZ-AC-1, Adjusted Main Design Air Flow Rate [m3/s], 9.89108E-002
 Component Sizing Information, AirLoopHVAC, CORE_ZN ZN PSZ-AC-1, User Heating Air Flow Ratio [], 1.00000
 Component Sizing Information, AirLoopHVAC, CORE_ZN ZN PSZ-AC-1, Calculated Heating Air Flow Ratio [], 1.00000
 Component Sizing Information, AirLoopHVAC, PERIMETER_ZN_1 ZN PSZ-AC-2, Sum of Air Terminal Maximum Heating Flow Rates [m3/s], 0.20724
 Component Sizing Information, AirLoopHVAC, PERIMETER_ZN_1 ZN PSZ-AC-2, Sum of Air Terminal Minimum Heating Flow Rates [m3/s], 0.20724
 Component Sizing Information, AirLoopHVAC, PERIMETER_ZN_1 ZN PSZ-AC-2, Sum of Air Terminal Maximum Flow Rates [m3/s], 0.20724
 Component Sizing Information, AirLoopHVAC, PERIMETER_ZN_1 ZN PSZ-AC-2, Adjusted Heating Design Air Flow Rate [m3/s], 0.20724
 Component Sizing Information, AirLoopHVAC, PERIMETER_ZN_1 ZN PSZ-AC-2, Adjusted Cooling Design Air Flow Rate [m3/s], 0.20724
 Component Sizing Information, AirLoopHVAC, PERIMETER_ZN_1 ZN PSZ-AC-2, Adjusted Main Design Air Flow Rate [m3/s], 0.20724
 Component Sizing Information, AirLoopHVAC, PERIMETER_ZN_1 ZN PSZ-AC-2, User Heating Air Flow Ratio [], 1.00000
 Component Sizing Information, AirLoopHVAC, PERIMETER_ZN_1 ZN PSZ-AC-2, Calculated Heating Air Flow Ratio [], 1.00000
 Component Sizing Information, AirLoopHVAC, PERIMETER_ZN_2 ZN PSZ-AC-3, Sum of Air Terminal Maximum Heating Flow Rates [m3/s], 0.12887
 Component Sizing Information, AirLoopHVAC, PERIMETER_ZN_2 ZN PSZ-AC-3, Sum of Air Terminal Minimum Heating Flow Rates [m3/s], 0.12887
 Component Sizing Information, AirLoopHVAC, PERIMETER_ZN_2 ZN PSZ-AC-3, Sum of Air Terminal Maximum Flow Rates [m3/s], 0.12887
 Component Sizing Information, AirLoopHVAC, PERIMETER_ZN_2 ZN PSZ-AC-3, Adjusted Heating Design Air Flow Rate [m3/s], 0.12887
 Component Sizing Information, AirLoopHVAC, PERIMETER_ZN_2 ZN PSZ-AC-3, Adjusted Cooling Design Air Flow Rate [m3/s], 0.12887
 Component Sizing Information, AirLoopHVAC, PERIMETER_ZN_2 ZN PSZ-AC-3, Adjusted Main Design Air Flow Rate [m3/s], 0.12887
 Component Sizing Information, AirLoopHVAC, PERIMETER_ZN_2 ZN PSZ-AC-3, User Heating Air Flow Ratio [], 1.00000
 Component Sizing Information, AirLoopHVAC, PERIMETER_ZN_2 ZN PSZ-AC-3, Calculated Heating Air Flow Ratio [], 1.00000
 Component Sizing Information, AirLoopHVAC, PERIMETER_ZN_3 ZN PSZ-AC-4, Sum of Air Terminal Maximum Heating Flow Rates [m3/s], 0.19766
 Component Sizing Information, AirLoopHVAC, PERIMETER_ZN_3 ZN PSZ-AC-4, Sum of Air Terminal Minimum Heating Flow Rates [m3/s], 0.19766
 Component Sizing Information, AirLoopHVAC, PERIMETER_ZN_3 ZN PSZ-AC-4, Sum of Air Terminal Maximum Flow Rates [m3/s], 0.19766
 Component Sizing Information, AirLoopHVAC, PERIMETER_ZN_3 ZN PSZ-AC-4, Adjusted Heating Design Air Flow Rate [m3/s], 0.19766
 Component Sizing Information, AirLoopHVAC, PERIMETER_ZN_3 ZN PSZ-AC-4, Adjusted Cooling Design Air Flow Rate [m3/s], 0.19766
 Component Sizing Information, AirLoopHVAC, PERIMETER_ZN_3 ZN PSZ-AC-4, Adjusted Main Design Air Flow Rate [m3/s], 0.19766
 Component Sizing Information, AirLoopHVAC, PERIMETER_ZN_3 ZN PSZ-AC-4, User Heating Air Flow Ratio [], 1.00000
 Component Sizing Information, AirLoopHVAC, PERIMETER_ZN_3 ZN PSZ-AC-4, Calculated Heating Air Flow Ratio [], 1.00000
 Component Sizing Information, AirLoopHVAC, PERIMETER_ZN_4 ZN PSZ-AC-5, Sum of Air Terminal Maximum Heating Flow Rates [m3/s], 0.12887
 Component Sizing Information, AirLoopHVAC, PERIMETER_ZN_4 ZN PSZ-AC-5, Sum of Air Terminal Minimum Heating Flow Rates [m3/s], 0.12887
 Component Sizing Information, AirLoopHVAC, PERIMETER_ZN_4 ZN PSZ-AC-5, Sum of Air Terminal Maximum Flow Rates [m3/s], 0.12887
 Component Sizing Information, AirLoopHVAC, PERIMETER_ZN_4 ZN PSZ-AC-5, Adjusted Heating Design Air Flow Rate [m3/s], 0.12887
 Component Sizing Information, AirLoopHVAC, PERIMETER_ZN_4 ZN PSZ-AC-5, Adjusted Cooling Design Air Flow Rate [m3/s], 0.12887
 Component Sizing Information, AirLoopHVAC, PERIMETER_ZN_4 ZN PSZ-AC-5, Adjusted Main Design Air Flow Rate [m3/s], 0.12887
 Component Sizing Information, AirLoopHVAC, PERIMETER_ZN_4 ZN PSZ-AC-5, User Heating Air Flow Ratio [], 1.00000
 Component Sizing Information, AirLoopHVAC, PERIMETER_ZN_4 ZN PSZ-AC-5, Calculated Heating Air Flow Ratio [], 1.00000
 Component Sizing Information, AirLoopHVAC, CORE_ZN ZN PSZ-AC-1, Design Supply Air Flow Rate [m3/s], 9.89108E-002
 Component Sizing Information, AirLoopHVAC, PERIMETER_ZN_1 ZN PSZ-AC-2, Design Supply Air Flow Rate [m3/s], 0.20724
 Component Sizing Information, AirLoopHVAC, PERIMETER_ZN_2 ZN PSZ-AC-3, Design Supply Air Flow Rate [m3/s], 0.12887
 Component Sizing Information, AirLoopHVAC, PERIMETER_ZN_3 ZN PSZ-AC-4, Design Supply Air Flow Rate [m3/s], 0.19766
 Component Sizing Information, AirLoopHVAC, PERIMETER_ZN_4 ZN PSZ-AC-5, Design Supply Air Flow Rate [m3/s], 0.12887
!<Controller:MechanicalVentilation>,Name,Availability Schedule Name,Demand Controlled Ventilation {Yes/No},System Outdoor Air Method,Zone Maximum Outdoor Air Fraction,Number of Zones,Zone Name,DSOA Name,DSZAD Name
 Controller:MechanicalVentilation,CONTROLLER MECHANICAL VENTILATION 5,ALWAYS ON DISCRETE,No,ZoneSum,1.00,1,CORE_ZN ZN,,CORE_ZN ZN DESIGN SPEC ZONE AIR DIST
 Controller:MechanicalVentilation,CONTROLLER MECHANICAL VENTILATION 1,ALWAYS ON DISCRETE,No,ZoneSum,1.00,1,PERIMETER_ZN_1 ZN,,PERIMETER_ZN_1 ZN DESIGN SPEC ZONE AIR DIST
 Controller:MechanicalVentilation,CONTROLLER MECHANICAL VENTILATION 2,ALWAYS ON DISCRETE,No,ZoneSum,1.00,1,PERIMETER_ZN_2 ZN,,PERIMETER_ZN_2 ZN DESIGN SPEC ZONE AIR DIST
 Controller:MechanicalVentilation,CONTROLLER MECHANICAL VENTILATION 3,ALWAYS ON DISCRETE,No,ZoneSum,1.00,1,PERIMETER_ZN_3 ZN,,PERIMETER_ZN_3 ZN DESIGN SPEC ZONE AIR DIST
 Controller:MechanicalVentilation,CONTROLLER MECHANICAL VENTILATION 4,ALWAYS ON DISCRETE,No,ZoneSum,1.00,1,PERIMETER_ZN_4 ZN,,PERIMETER_ZN_4 ZN DESIGN SPEC ZONE AIR DIST
 Component Sizing Information, Controller:OutdoorAir, CORE_ZN ZN PSZ-AC-1 OA SYS CONTROLLER, Maximum Outdoor Air Flow Rate [m3/s], 9.89108E-002
 Component Sizing Information, Controller:OutdoorAir, CORE_ZN ZN PSZ-AC-1 OA SYS CONTROLLER, Minimum Outdoor Air Flow Rate [m3/s], 0.00000
 Component Sizing Information, Coil:Heating:Electric, ELEC HTG COIL, Design Size Nominal Capacity [W], 1811.94283
 Component Sizing Information, Controller:OutdoorAir, PERIMETER_ZN_1 ZN PSZ-AC-2 OA SYS CONTROLLER, Maximum Outdoor Air Flow Rate [m3/s], 0.20724
 Component Sizing Information, Controller:OutdoorAir, PERIMETER_ZN_1 ZN PSZ-AC-2 OA SYS CONTROLLER, Minimum Outdoor Air Flow Rate [m3/s], 0.00000
 Component Sizing Information, Coil:Heating:Electric, ELEC HTG COIL 1, Design Size Nominal Capacity [W], 3796.60611
 Component Sizing Information, Controller:OutdoorAir, PERIMETER_ZN_2 ZN PSZ-AC-3 OA SYS CONTROLLER, Maximum Outdoor Air Flow Rate [m3/s], 0.12887
 Component Sizing Information, Controller:OutdoorAir, PERIMETER_ZN_2 ZN PSZ-AC-3 OA SYS CONTROLLER, Minimum Outdoor Air Flow Rate [m3/s], 0.00000
 Component Sizing Information, Coil:Heating:Electric, ELEC HTG COIL 2, Design Size Nominal Capacity [W], 2360.86224
 Component Sizing Information, Controller:OutdoorAir, PERIMETER_ZN_3 ZN PSZ-AC-4 OA SYS CONTROLLER, Maximum Outdoor Air Flow Rate [m3/s], 0.19766
 Component Sizing Information, Controller:OutdoorAir, PERIMETER_ZN_3 ZN PSZ-AC-4 OA SYS CONTROLLER, Minimum Outdoor Air Flow Rate [m3/s], 0.00000
 Component Sizing Information, Coil:Heating:Electric, ELEC HTG COIL 3, Design Size Nominal Capacity [W], 3620.99095
 Component Sizing Information, Controller:OutdoorAir, PERIMETER_ZN_4 ZN PSZ-AC-5 OA SYS CONTROLLER, Maximum Outdoor Air Flow Rate [m3/s], 0.12887
 Component Sizing Information, Controller:OutdoorAir, PERIMETER_ZN_4 ZN PSZ-AC-5 OA SYS CONTROLLER, Minimum Outdoor Air Flow Rate [m3/s], 0.00000
 Component Sizing Information, Coil:Heating:Electric, ELEC HTG COIL 4, Design Size Nominal Capacity [W], 2360.86224
Water Heater Information,WaterHeater:Mixed,40.0GAL ELECTRICITY WATER HEATER - 40KBTU/HR 1.0 THERM EFF,0.1514,11722.8,0.988,0.5106
 Component Sizing Information, PlantLoop, MAIN SERVICE WATER LOOP, Maximum Loop Flow Rate [m3/s], 0.00000
 Component Sizing Information, PlantLoop, MAIN SERVICE WATER LOOP, Plant Loop Volume [m3], 0.00000
 Component Sizing Information, Pump:ConstantSpeed, SERVICE WATER LOOP PUMP, Design Flow Rate [m3/s], 0.00000
 Component Sizing Information, Pump:ConstantSpeed, SERVICE WATER LOOP PUMP, Design Power Consumption [W], 0.00000
 Component Sizing Information, WaterHeater:Mixed, 40.0GAL ELECTRICITY WATER HEATER - 40KBTU/HR 1.0 THERM EFF, Use Side Design Flow Rate [m3/s], 0.00000
! <Environment>,Environment Name,Environment Type, Start Date, End Date, Start DayOfWeek, Duration {#days}, Source:Start DayOfWeek,  Use Daylight Saving, Use Holidays, Apply Weekend Holiday Rule,  Use Rain Values, Use Snow Values
! <Environment:Special Days>, Special Day Name, Special Day Type, Source, Start Date, Duration {#days}
! <Environment:Daylight Saving>, Daylight Saving Indicator, Source, Start Date, End Date
! <Environment:WarmupDays>, NumberofWarmupDays
Environment,RUN PERIOD 1,WeatherFileRunPeriod,01/01,12/31,Sunday,365,Use RunPeriod Specified Day,No,No,No,Yes,Yes
Environment:Daylight Saving,No,RunPeriod Object
Environment:WarmupDays,  6
! <Tabular Report>,Style,Unit Conversion
Tabular Report,HTML,None
! <Warmup Convergence Information>,Zone Name,Environment Type/Name,Average Warmup Temperature Difference {deltaC},Std Dev Warmup Temperature Difference {deltaC},Max Temperature Pass/Fail Convergence,Min Temperature Pass/Fail Convergence,Average Warmup Load Difference {W},Std Dev Warmup Load Difference {W},Heating Load Pass/Fail Convergence,Cooling Load Pass/Fail Convergence
 Warmup Convergence Information,ATTIC ZN,RunPeriod: RUN PERIOD 1,2.9409298035E-002,2.8074580173E-002,Pass,Pass,0.0000000000,0.0000000000,Pass,Pass
 Warmup Convergence Information,CORE_ZN ZN,RunPeriod: RUN PERIOD 1,2.5579276384E-003,1.5608871708E-003,Pass,Pass,6.7418473817E-004,4.2366885136E-004,Pass,Pass
 Warmup Convergence Information,PERIMETER_ZN_1 ZN,RunPeriod: RUN PERIOD 1,2.0836642753E-002,6.3775507686E-002,Pass,Pass,0.2372453303,0.5553062750,Pass,Pass
 Warmup Convergence Information,PERIMETER_ZN_2 ZN,RunPeriod: RUN PERIOD 1,4.9504737799E-003,2.2672384237E-002,Pass,Pass,1.4906930011,14.5437243758,Pass,Pass
 Warmup Convergence Information,PERIMETER_ZN_3 ZN,RunPeriod: RUN PERIOD 1,6.6561292968E-006,6.9016700944E-006,Pass,Pass,5.6058141081E-002,5.2553752359E-002,Pass,Pass
 Warmup Convergence Information,PERIMETER_ZN_4 ZN,RunPeriod: RUN PERIOD 1,6.9582501478E-006,6.8658240171E-006,Pass,Pass,8.2850587481E-002,0.1920358763,Pass,Pass
! <Program Control Information:Threads/Parallel Sims>, Threading Supported,Maximum Number of Threads, Env Set Threads (OMP_NUM_THREADS), EP Env Set Threads (EP_OMP_NUM_THREADS), IDF Set Threads, Number of Threads Used (Interior Radiant Exchange), Number Nominal Surfaces, Number Parallel Sims
Program Control:Threads/Parallel Sims, No,1, N/A, N/A, N/A, N/A, N/A, N/A
End of Data
