Program Version,EnergyPlus, Version 8.9.0-497bb3e71c, YMD=2018.06.06 17:13
! This file shows details about the branches, nodes, and other
! elements of the flow connections.
! This file is intended for use in "debugging" potential problems
! that may also be detected by the program, but may be more easily
! identified by "eye".
! This file is also intended to support software which draws a
! schematic diagram of the HVAC system.
! ===============================================================
! #Nodes,<Number of Unique Nodes>
 #Nodes,69
! <Node>,<NodeNumber>,<Node Name>,<Node Fluid Type>,<# Times Node Referenced After Definition>
 Node,1,NODE 47,Air,5
 Node,2,NODE 11,Air,5
 Node,3,NODE 20,Air,5
 Node,4,NODE 29,Air,5
 Node,5,NODE 38,Air,5
 Node,6,NODE 44,Air,5
 Node,7,NODE 45,Air,3
 Node,8,NODE 8,Air,5
 Node,9,NODE 9,Air,3
 Node,10,NODE 17,Air,5
 Node,11,NODE 18,Air,3
 Node,12,NODE 26,Air,5
 Node,13,NODE 27,Air,3
 Node,14,NODE 35,Air,5
 Node,15,NODE 36,Air,3
 Node,16,NODE 43,Air,3
 Node,17,NODE 73,Air,5
 Node,18,NODE 7,Air,3
 Node,19,NODE 74,Air,5
 Node,20,NODE 16,Air,3
 Node,21,NODE 75,Air,5
 Node,22,NODE 25,Air,3
 Node,23,NODE 76,Air,5
 Node,24,NODE 34,Air,3
 Node,25,NODE 77,Air,5
 Node,26,NODE 52,Water,2
 Node,27,NODE 58,Water,1
 Node,28,NODE 54,Water,1
 Node,29,NODE 59,Water,1
 Node,30,NODE 60,Water,1
 Node,31,NODE 61,Water,1
 Node,32,NODE 63,Water,1
 Node,33,NODE 53,Water,4
 Node,34,NODE 55,Water,2
 Node,35,NODE 64,Water,1
 Node,36,NODE 57,Water,1
 Node,37,NODE 62,Water,1
 Node,38,MAIN SERVICE WATER LOOP DEMAND BRANCH 2 PIPE INLET NODE,Water,1
 Node,39,MAIN SERVICE WATER LOOP DEMAND BRANCH 2 PIPE OUTLET NODE,Water,1
 Node,40,MAIN SERVICE WATER LOOP DEMAND BYPASS PIPE INLET NODE,Water,1
 Node,41,MAIN SERVICE WATER LOOP DEMAND BYPASS PIPE OUTLET NODE,Water,1
 Node,42,NODE 65,Water,1
 Node,43,NODE 56,Water,2
 Node,44,NODE 2,Air,2
 Node,45,NODE 51,Air,1
 Node,46,NODE 3,Air,2
 Node,47,NODE 15,Air,1
 Node,48,NODE 1,Air,2
 Node,49,NODE 24,Air,1
 Node,50,NODE 4,Air,2
 Node,51,NODE 33,Air,1
 Node,52,NODE 5,Air,2
 Node,53,NODE 42,Air,1
 Node,54,NODE 46,Air,2
 Node,55,NODE 10,Air,2
 Node,56,NODE 19,Air,2
 Node,57,NODE 28,Air,2
 Node,58,NODE 37,Air,2
 Node,59,NODE 48,Air,2
 Node,60,NODE 12,Air,2
 Node,61,NODE 21,Air,2
 Node,62,NODE 30,Air,2
 Node,63,NODE 39,Air,2
 Node,64,MODEL OUTDOOR AIR NODE,Air,0
 Node,65,NODE 49,Air,1
 Node,66,NODE 13,Air,1
 Node,67,NODE 22,Air,1
 Node,68,NODE 31,Air,1
 Node,69,NODE 40,Air,1
! ===============================================================
! Suspicious nodes have 0 references.  It is normal for some nodes, however.
! Listing nodes with 0 references (culled from previous list):
! <Suspicious Node>,<NodeNumber>,<Node Name>,<Node Fluid Type>,<# Times Node Referenced After Definition>
 Suspicious Node,64,MODEL OUTDOOR AIR NODE,Air,0
! ===============================================================
! <#Branch Lists>,<Number of Branch Lists>
 #Branch Lists,7
! <Branch List>,<Branch List Count>,<Branch List Name>,<Loop Name>,<Loop Type>,<Number of Branches>
! <Branch>,<Branch Count>,<Branch Name>,<Loop Name>,<Loop Type>,<Branch Inlet Node Name>,<Branch Outlet Node Name>
 Branch List,1,CORE_ZN ZN PSZ-AC-1 SUPPLY BRANCHES,CORE_ZN ZN PSZ-AC-1,Air,1
   Branch,1,CORE_ZN ZN PSZ-AC-1 MAIN BRANCH,CORE_ZN ZN PSZ-AC-1,Air,NODE 43,NODE 44
 Branch List,2,PERIMETER_ZN_1 ZN PSZ-AC-2 SUPPLY BRANCHES,PERIMETER_ZN_1 ZN PSZ-AC-2,Air,1
   Branch,1,PERIMETER_ZN_1 ZN PSZ-AC-2 MAIN BRANCH,PERIMETER_ZN_1 ZN PSZ-AC-2,Air,NODE 7,NODE 8
 Branch List,3,PERIMETER_ZN_2 ZN PSZ-AC-3 SUPPLY BRANCHES,PERIMETER_ZN_2 ZN PSZ-AC-3,Air,1
   Branch,1,PERIMETER_ZN_2 ZN PSZ-AC-3 MAIN BRANCH,PERIMETER_ZN_2 ZN PSZ-AC-3,Air,NODE 16,NODE 17
 Branch List,4,PERIMETER_ZN_3 ZN PSZ-AC-4 SUPPLY BRANCHES,PERIMETER_ZN_3 ZN PSZ-AC-4,Air,1
   Branch,1,PERIMETER_ZN_3 ZN PSZ-AC-4 MAIN BRANCH,PERIMETER_ZN_3 ZN PSZ-AC-4,Air,NODE 25,NODE 26
 Branch List,5,PERIMETER_ZN_4 ZN PSZ-AC-5 SUPPLY BRANCHES,PERIMETER_ZN_4 ZN PSZ-AC-5,Air,1
   Branch,1,PERIMETER_ZN_4 ZN PSZ-AC-5 MAIN BRANCH,PERIMETER_ZN_4 ZN PSZ-AC-5,Air,NODE 34,NODE 35
 Branch List,6,MAIN SERVICE WATER LOOP SUPPLY BRANCHES,MAIN SERVICE WATER LOOP,Plant Supply,4
   Branch,1,MAIN SERVICE WATER LOOP SUPPLY INLET BRANCH,MAIN SERVICE WATER LOOP,Plant Supply,NODE 52,NODE 58
   Branch,2,MAIN SERVICE WATER LOOP SUPPLY BRANCH 1,MAIN SERVICE WATER LOOP,Plant Supply,NODE 54,NODE 59
   Branch,3,MAIN SERVICE WATER LOOP SUPPLY BRANCH 2,MAIN SERVICE WATER LOOP,Plant Supply,NODE 60,NODE 61
   Branch,4,MAIN SERVICE WATER LOOP SUPPLY OUTLET BRANCH,MAIN SERVICE WATER LOOP,Plant Supply,NODE 63,NODE 53
 Branch List,7,MAIN SERVICE WATER LOOP DEMAND BRANCHES,MAIN SERVICE WATER LOOP,Plant Demand,5
   Branch,1,MAIN SERVICE WATER LOOP DEMAND INLET BRANCH,MAIN SERVICE WATER LOOP,Plant Demand,NODE 55,NODE 64
   Branch,2,MAIN SERVICE WATER LOOP DEMAND BRANCH 1,MAIN SERVICE WATER LOOP,Plant Demand,NODE 57,NODE 62
   Branch,3,MAIN SERVICE WATER LOOP DEMAND BRANCH 2,MAIN SERVICE WATER LOOP,Plant Demand,MAIN SERVICE WATER LOOP DEMAND BRANCH 2 PIPE INLET NODE,MAIN SERVICE WATER LOOP DEMAND BRANCH 2 PIPE OUTLET NODE
   Branch,4,MAIN SERVICE WATER LOOP DEMAND BYPASS BRANCH,MAIN SERVICE WATER LOOP,Plant Demand,MAIN SERVICE WATER LOOP DEMAND BYPASS PIPE INLET NODE,MAIN SERVICE WATER LOOP DEMAND BYPASS PIPE OUTLET NODE
   Branch,5,MAIN SERVICE WATER LOOP DEMAND OUTLET BRANCH,MAIN SERVICE WATER LOOP,Plant Demand,NODE 65,NODE 56
! ===============================================================
! <#Supply Air Paths>,<Number of Supply Air Paths>
 #Supply Air Paths,5
! <Supply Air Path>,<Supply Air Path Count>,<Supply Air Path Name>,<AirLoopHVAC Name>
! <#Components on Supply Air Path>,<Number of Components>
! <Supply Air Path Component>,<Component Count>,<Component Type>,<Component Name>,<AirLoopHVAC Name>
! <#Outlet Nodes on Supply Air Path Component>,<Number of Nodes>
! <Supply Air Path Component Nodes>,<Node Count>,<Component Type>,<Component Name>,<Inlet Node Name>,<Outlet Node Name>,<AirLoopHVAC Name>
 Supply Air Path,1,CORE_ZN ZN PSZ-AC-1 NODE 45 SUPPLY PATH,CORE_ZN ZN PSZ-AC-1
   #Components on Supply Air Path,1
   Supply Air Path Component,1,AIRLOOPHVAC:ZONESPLITTER,AIR LOOP HVAC ZONE SPLITTER 5,CORE_ZN ZN PSZ-AC-1
     #Outlet Nodes on Supply Air Path Component,1
     Supply Air Path Component Nodes,1,AIRLOOPHVAC:ZONESPLITTER,AIR LOOP HVAC ZONE SPLITTER 5,NODE 45,NODE 47,CORE_ZN ZN PSZ-AC-1
! <#Nodes on Supply Air Path>,<Number of Nodes>
! <Supply Air Path Node>,<Node Type>,<Node Count>,<Node Name>,<AirLoopHVAC Name>
#Nodes on Supply Air Path,2
   Supply Air Path Node,Inlet Node,1,NODE 45,CORE_ZN ZN PSZ-AC-1
   Supply Air Path Node,Outlet Node,2,NODE 47,CORE_ZN ZN PSZ-AC-1
 Supply Air Path,2,PERIMETER_ZN_1 ZN PSZ-AC-2 NODE 9 SUPPLY PATH,PERIMETER_ZN_1 ZN PSZ-AC-2
   #Components on Supply Air Path,1
   Supply Air Path Component,1,AIRLOOPHVAC:ZONESPLITTER,AIR LOOP HVAC ZONE SPLITTER 1,PERIMETER_ZN_1 ZN PSZ-AC-2
     #Outlet Nodes on Supply Air Path Component,1
     Supply Air Path Component Nodes,1,AIRLOOPHVAC:ZONESPLITTER,AIR LOOP HVAC ZONE SPLITTER 1,NODE 9,NODE 11,PERIMETER_ZN_1 ZN PSZ-AC-2
! <#Nodes on Supply Air Path>,<Number of Nodes>
! <Supply Air Path Node>,<Node Type>,<Node Count>,<Node Name>,<AirLoopHVAC Name>
#Nodes on Supply Air Path,2
   Supply Air Path Node,Inlet Node,1,NODE 9,PERIMETER_ZN_1 ZN PSZ-AC-2
   Supply Air Path Node,Outlet Node,2,NODE 11,PERIMETER_ZN_1 ZN PSZ-AC-2
 Supply Air Path,3,PERIMETER_ZN_2 ZN PSZ-AC-3 NODE 18 SUPPLY PATH,PERIMETER_ZN_2 ZN PSZ-AC-3
   #Components on Supply Air Path,1
   Supply Air Path Component,1,AIRLOOPHVAC:ZONESPLITTER,AIR LOOP HVAC ZONE SPLITTER 2,PERIMETER_ZN_2 ZN PSZ-AC-3
     #Outlet Nodes on Supply Air Path Component,1
     Supply Air Path Component Nodes,1,AIRLOOPHVAC:ZONESPLITTER,AIR LOOP HVAC ZONE SPLITTER 2,NODE 18,NODE 20,PERIMETER_ZN_2 ZN PSZ-AC-3
! <#Nodes on Supply Air Path>,<Number of Nodes>
! <Supply Air Path Node>,<Node Type>,<Node Count>,<Node Name>,<AirLoopHVAC Name>
#Nodes on Supply Air Path,2
   Supply Air Path Node,Inlet Node,1,NODE 18,PERIMETER_ZN_2 ZN PSZ-AC-3
   Supply Air Path Node,Outlet Node,2,NODE 20,PERIMETER_ZN_2 ZN PSZ-AC-3
 Supply Air Path,4,PERIMETER_ZN_3 ZN PSZ-AC-4 NODE 27 SUPPLY PATH,PERIMETER_ZN_3 ZN PSZ-AC-4
   #Components on Supply Air Path,1
   Supply Air Path Component,1,AIRLOOPHVAC:ZONESPLITTER,AIR LOOP HVAC ZONE SPLITTER 3,PERIMETER_ZN_3 ZN PSZ-AC-4
     #Outlet Nodes on Supply Air Path Component,1
     Supply Air Path Component Nodes,1,AIRLOOPHVAC:ZONESPLITTER,AIR LOOP HVAC ZONE SPLITTER 3,NODE 27,NODE 29,PERIMETER_ZN_3 ZN PSZ-AC-4
! <#Nodes on Supply Air Path>,<Number of Nodes>
! <Supply Air Path Node>,<Node Type>,<Node Count>,<Node Name>,<AirLoopHVAC Name>
#Nodes on Supply Air Path,2
   Supply Air Path Node,Inlet Node,1,NODE 27,PERIMETER_ZN_3 ZN PSZ-AC-4
   Supply Air Path Node,Outlet Node,2,NODE 29,PERIMETER_ZN_3 ZN PSZ-AC-4
 Supply Air Path,5,PERIMETER_ZN_4 ZN PSZ-AC-5 NODE 36 SUPPLY PATH,PERIMETER_ZN_4 ZN PSZ-AC-5
   #Components on Supply Air Path,1
   Supply Air Path Component,1,AIRLOOPHVAC:ZONESPLITTER,AIR LOOP HVAC ZONE SPLITTER 4,PERIMETER_ZN_4 ZN PSZ-AC-5
     #Outlet Nodes on Supply Air Path Component,1
     Supply Air Path Component Nodes,1,AIRLOOPHVAC:ZONESPLITTER,AIR LOOP HVAC ZONE SPLITTER 4,NODE 36,NODE 38,PERIMETER_ZN_4 ZN PSZ-AC-5
! <#Nodes on Supply Air Path>,<Number of Nodes>
! <Supply Air Path Node>,<Node Type>,<Node Count>,<Node Name>,<AirLoopHVAC Name>
#Nodes on Supply Air Path,2
   Supply Air Path Node,Inlet Node,1,NODE 36,PERIMETER_ZN_4 ZN PSZ-AC-5
   Supply Air Path Node,Outlet Node,2,NODE 38,PERIMETER_ZN_4 ZN PSZ-AC-5
! ===============================================================
! <#Return Air Paths>,<Number of Return Air Paths>
 #Return Air Paths,5
! <Return Air Path>,<Return Air Path Count>,<Return Air Path Name>,<AirLoopHVAC Name>
! <#Components on Return Air Path>,<Number of Components>
! <Return Air Path Component>,<Component Count>,<Component Type>,<Component Name>,<AirLoopHVAC Name>
! <#Inlet Nodes on Return Air Path Component>,<Number of Nodes>
! <Return Air Path Component Nodes>,<Node Count>,<Component Type>,<Component Name>,<Inlet Node Name>,<Outlet Node Name>,<AirLoopHVAC Name>
 Return Air Path,1,CORE_ZN ZN PSZ-AC-1 RETURN PATH,CORE_ZN ZN PSZ-AC-1
   #Components on Return Air Path,1
   Return Air Path Component,1,AIRLOOPHVAC:ZONEMIXER,AIR LOOP HVAC ZONE MIXER 5,CORE_ZN ZN PSZ-AC-1
     #Inlet Nodes on Return Air Path Component,1
     Return Air Path Component Nodes,1,AIRLOOPHVAC:ZONEMIXER,AIR LOOP HVAC ZONE MIXER 5,NODE 51,NODE 46,CORE_ZN ZN PSZ-AC-1
! <#Nodes on Return Air Path>,<Number of Nodes>
! <Return Air Path Node>,<Node Type>,<Node Count>,<Node Name>,<AirLoopHVAC Name>
   #Nodes on Return Air Path,2
   Return Air Path Node,Outlet Node,1,NODE 46,CORE_ZN ZN PSZ-AC-1
   Return Air Path Node,Inlet Node,2,NODE 51,CORE_ZN ZN PSZ-AC-1
 Return Air Path,2,PERIMETER_ZN_1 ZN PSZ-AC-2 RETURN PATH,PERIMETER_ZN_1 ZN PSZ-AC-2
   #Components on Return Air Path,1
   Return Air Path Component,1,AIRLOOPHVAC:ZONEMIXER,AIR LOOP HVAC ZONE MIXER 1,PERIMETER_ZN_1 ZN PSZ-AC-2
     #Inlet Nodes on Return Air Path Component,1
     Return Air Path Component Nodes,1,AIRLOOPHVAC:ZONEMIXER,AIR LOOP HVAC ZONE MIXER 1,NODE 15,NODE 10,PERIMETER_ZN_1 ZN PSZ-AC-2
! <#Nodes on Return Air Path>,<Number of Nodes>
! <Return Air Path Node>,<Node Type>,<Node Count>,<Node Name>,<AirLoopHVAC Name>
   #Nodes on Return Air Path,2
   Return Air Path Node,Outlet Node,1,NODE 10,PERIMETER_ZN_1 ZN PSZ-AC-2
   Return Air Path Node,Inlet Node,2,NODE 15,PERIMETER_ZN_1 ZN PSZ-AC-2
 Return Air Path,3,PERIMETER_ZN_2 ZN PSZ-AC-3 RETURN PATH,PERIMETER_ZN_2 ZN PSZ-AC-3
   #Components on Return Air Path,1
   Return Air Path Component,1,AIRLOOPHVAC:ZONEMIXER,AIR LOOP HVAC ZONE MIXER 2,PERIMETER_ZN_2 ZN PSZ-AC-3
     #Inlet Nodes on Return Air Path Component,1
     Return Air Path Component Nodes,1,AIRLOOPHVAC:ZONEMIXER,AIR LOOP HVAC ZONE MIXER 2,NODE 24,NODE 19,PERIMETER_ZN_2 ZN PSZ-AC-3
! <#Nodes on Return Air Path>,<Number of Nodes>
! <Return Air Path Node>,<Node Type>,<Node Count>,<Node Name>,<AirLoopHVAC Name>
   #Nodes on Return Air Path,2
   Return Air Path Node,Outlet Node,1,NODE 19,PERIMETER_ZN_2 ZN PSZ-AC-3
   Return Air Path Node,Inlet Node,2,NODE 24,PERIMETER_ZN_2 ZN PSZ-AC-3
 Return Air Path,4,PERIMETER_ZN_3 ZN PSZ-AC-4 RETURN PATH,PERIMETER_ZN_3 ZN PSZ-AC-4
   #Components on Return Air Path,1
   Return Air Path Component,1,AIRLOOPHVAC:ZONEMIXER,AIR LOOP HVAC ZONE MIXER 3,PERIMETER_ZN_3 ZN PSZ-AC-4
     #Inlet Nodes on Return Air Path Component,1
     Return Air Path Component Nodes,1,AIRLOOPHVAC:ZONEMIXER,AIR LOOP HVAC ZONE MIXER 3,NODE 33,NODE 28,PERIMETER_ZN_3 ZN PSZ-AC-4
! <#Nodes on Return Air Path>,<Number of Nodes>
! <Return Air Path Node>,<Node Type>,<Node Count>,<Node Name>,<AirLoopHVAC Name>
   #Nodes on Return Air Path,2
   Return Air Path Node,Outlet Node,1,NODE 28,PERIMETER_ZN_3 ZN PSZ-AC-4
   Return Air Path Node,Inlet Node,2,NODE 33,PERIMETER_ZN_3 ZN PSZ-AC-4
 Return Air Path,5,PERIMETER_ZN_4 ZN PSZ-AC-5 RETURN PATH,PERIMETER_ZN_4 ZN PSZ-AC-5
   #Components on Return Air Path,1
   Return Air Path Component,1,AIRLOOPHVAC:ZONEMIXER,AIR LOOP HVAC ZONE MIXER 4,PERIMETER_ZN_4 ZN PSZ-AC-5
     #Inlet Nodes on Return Air Path Component,1
     Return Air Path Component Nodes,1,AIRLOOPHVAC:ZONEMIXER,AIR LOOP HVAC ZONE MIXER 4,NODE 42,NODE 37,PERIMETER_ZN_4 ZN PSZ-AC-5
! <#Nodes on Return Air Path>,<Number of Nodes>
! <Return Air Path Node>,<Node Type>,<Node Count>,<Node Name>,<AirLoopHVAC Name>
   #Nodes on Return Air Path,2
   Return Air Path Node,Outlet Node,1,NODE 37,PERIMETER_ZN_4 ZN PSZ-AC-5
   Return Air Path Node,Inlet Node,2,NODE 42,PERIMETER_ZN_4 ZN PSZ-AC-5
! ===============================================================
! #Outdoor Air Nodes,<Number of Outdoor Air Nodes>
 #Outdoor Air Nodes,6
! <Outdoor Air Node>,<NodeNumber>,<Node Name>
 Outdoor Air Node,59,NODE 48
 Outdoor Air Node,60,NODE 12
 Outdoor Air Node,61,NODE 21
 Outdoor Air Node,62,NODE 30
 Outdoor Air Node,63,NODE 39
 Outdoor Air Node,64,MODEL OUTDOOR AIR NODE
! ===============================================================
! <#Component Sets>,<Number of Component Sets>
 #Component Sets,24
! <Component Set>,<Component Set Count>,<Parent Object Type>,<Parent Object Name>,<Component Type>,<Component Name>,<Inlet Node ID>,<Outlet Node ID>,<Description>
 Component Set,1,BRANCH,CORE_ZN ZN PSZ-AC-1 MAIN BRANCH,AIRLOOPHVAC:OUTDOORAIRSYSTEM,CORE_ZN ZN PSZ-AC-1 OA SYS,NODE 43,NODE 73,Air Nodes
 Component Set,2,BRANCH,CORE_ZN ZN PSZ-AC-1 MAIN BRANCH,COIL:HEATING:ELECTRIC,ELEC HTG COIL,NODE 73,NODE 44,Air Nodes
 Component Set,3,BRANCH,PERIMETER_ZN_1 ZN PSZ-AC-2 MAIN BRANCH,AIRLOOPHVAC:OUTDOORAIRSYSTEM,PERIMETER_ZN_1 ZN PSZ-AC-2 OA SYS,NODE 7,NODE 74,Air Nodes
 Component Set,4,BRANCH,PERIMETER_ZN_1 ZN PSZ-AC-2 MAIN BRANCH,COIL:HEATING:ELECTRIC,ELEC HTG COIL 1,NODE 74,NODE 8,Air Nodes
 Component Set,5,BRANCH,PERIMETER_ZN_2 ZN PSZ-AC-3 MAIN BRANCH,AIRLOOPHVAC:OUTDOORAIRSYSTEM,PERIMETER_ZN_2 ZN PSZ-AC-3 OA SYS,NODE 16,NODE 75,Air Nodes
 Component Set,6,BRANCH,PERIMETER_ZN_2 ZN PSZ-AC-3 MAIN BRANCH,COIL:HEATING:ELECTRIC,ELEC HTG COIL 2,NODE 75,NODE 17,Air Nodes
 Component Set,7,BRANCH,PERIMETER_ZN_3 ZN PSZ-AC-4 MAIN BRANCH,AIRLOOPHVAC:OUTDOORAIRSYSTEM,PERIMETER_ZN_3 ZN PSZ-AC-4 OA SYS,NODE 25,NODE 76,Air Nodes
 Component Set,8,BRANCH,PERIMETER_ZN_3 ZN PSZ-AC-4 MAIN BRANCH,COIL:HEATING:ELECTRIC,ELEC HTG COIL 3,NODE 76,NODE 26,Air Nodes
 Component Set,9,BRANCH,PERIMETER_ZN_4 ZN PSZ-AC-5 MAIN BRANCH,AIRLOOPHVAC:OUTDOORAIRSYSTEM,PERIMETER_ZN_4 ZN PSZ-AC-5 OA SYS,NODE 34,NODE 77,Air Nodes
 Component Set,10,BRANCH,PERIMETER_ZN_4 ZN PSZ-AC-5 MAIN BRANCH,COIL:HEATING:ELECTRIC,ELEC HTG COIL 4,NODE 77,NODE 35,Air Nodes
 Component Set,11,BRANCH,MAIN SERVICE WATER LOOP SUPPLY INLET BRANCH,PUMP:CONSTANTSPEED,SERVICE WATER LOOP PUMP,NODE 52,NODE 58,Water Nodes
 Component Set,12,BRANCH,MAIN SERVICE WATER LOOP SUPPLY BRANCH 1,WATERHEATER:MIXED,40.0GAL ELECTRICITY WATER HEATER - 40KBTU/HR 1.0 THERM EFF,NODE 54,NODE 59,Use Side Water Nodes
 Component Set,13,BRANCH,MAIN SERVICE WATER LOOP SUPPLY BRANCH 2,PIPE:ADIABATIC,PIPE ADIABATIC 1,NODE 60,NODE 61,Pipe Nodes
 Component Set,14,BRANCH,MAIN SERVICE WATER LOOP SUPPLY OUTLET BRANCH,PIPE:ADIABATIC,PIPE ADIABATIC 3,NODE 63,NODE 53,Pipe Nodes
 Component Set,15,BRANCH,MAIN SERVICE WATER LOOP DEMAND INLET BRANCH,PIPE:ADIABATIC,PIPE ADIABATIC 4,NODE 55,NODE 64,Pipe Nodes
 Component Set,16,BRANCH,MAIN SERVICE WATER LOOP DEMAND BRANCH 1,PIPE:ADIABATIC,PIPE ADIABATIC 2,NODE 57,NODE 62,Pipe Nodes
 Component Set,17,BRANCH,MAIN SERVICE WATER LOOP DEMAND BRANCH 2,PIPE:ADIABATIC,MAIN SERVICE WATER LOOP DEMAND BRANCH 2 PIPE,MAIN SERVICE WATER LOOP DEMAND BRANCH 2 PIPE INLET NODE,MAIN SERVICE WATER LOOP DEMAND BRANCH 2 PIPE OUTLET NODE,Pipe Nodes
 Component Set,18,BRANCH,MAIN SERVICE WATER LOOP DEMAND BYPASS BRANCH,PIPE:ADIABATIC,MAIN SERVICE WATER LOOP DEMAND BYPASS PIPE,MAIN SERVICE WATER LOOP DEMAND BYPASS PIPE INLET NODE,MAIN SERVICE WATER LOOP DEMAND BYPASS PIPE OUTLET NODE,Pipe Nodes
 Component Set,19,BRANCH,MAIN SERVICE WATER LOOP DEMAND OUTLET BRANCH,PIPE:ADIABATIC,PIPE ADIABATIC 5,NODE 65,NODE 56,Pipe Nodes
 Component Set,20,AIRLOOPHVAC:OUTDOORAIRSYSTEM,CORE_ZN ZN PSZ-AC-1 OA SYS,OUTDOORAIR:MIXER,CORE_ZN ZN PSZ-AC-1 OA SYS OUTDOOR AIR MIXER,NODE 48,NODE 73,Air Nodes
 Component Set,21,AIRLOOPHVAC:OUTDOORAIRSYSTEM,PERIMETER_ZN_1 ZN PSZ-AC-2 OA SYS,OUTDOORAIR:MIXER,PERIMETER_ZN_1 ZN PSZ-AC-2 OA SYS OUTDOOR AIR MIXER,NODE 12,NODE 74,Air Nodes
 Component Set,22,AIRLOOPHVAC:OUTDOORAIRSYSTEM,PERIMETER_ZN_2 ZN PSZ-AC-3 OA SYS,OUTDOORAIR:MIXER,PERIMETER_ZN_2 ZN PSZ-AC-3 OA SYS OUTDOOR AIR MIXER,NODE 21,NODE 75,Air Nodes
 Component Set,23,AIRLOOPHVAC:OUTDOORAIRSYSTEM,PERIMETER_ZN_3 ZN PSZ-AC-4 OA SYS,OUTDOORAIR:MIXER,PERIMETER_ZN_3 ZN PSZ-AC-4 OA SYS OUTDOOR AIR MIXER,NODE 30,NODE 76,Air Nodes
 Component Set,24,AIRLOOPHVAC:OUTDOORAIRSYSTEM,PERIMETER_ZN_4 ZN PSZ-AC-5 OA SYS,OUTDOORAIR:MIXER,PERIMETER_ZN_4 ZN PSZ-AC-5 OA SYS OUTDOOR AIR MIXER,NODE 39,NODE 77,Air Nodes
! ===============================================================
! <# Plant Loops>,<Number of Plant Loops>
 #Plant Loops,1
! <Plant Loop>,<Plant Loop Name>,<Loop Type>,<Inlet Node Name>,<Outlet Node Name>,<Branch List>,<Connector List>
! <Plant Loop Connector>,<Connector Type>,<Connector Name>,<Loop Name>,<Loop Type>,<Number of Inlets/Outlets>
! <Plant Loop Connector Branches>,<Connector Node Count>,<Connector Type>,<Connector Name>,<Inlet Branch>,<Outlet Branch>,<Loop Name>,<Loop Type>
! <Plant Loop Connector Nodes>,<Connector Node Count>,<Connector Type>,<Connector Name>,<Inlet Node>,<Outlet Node>,<Loop Name>,<Loop Type>
! <Plant Loop Supply Connection>,<Plant Loop Name>,<Supply Side Outlet Node Name>,<Demand Side Inlet Node Name>
! <Plant Loop Return Connection>,<Plant Loop Name>,<Demand Side Outlet Node Name>,<Supply Side Inlet Node Name>
 Plant Loop,MAIN SERVICE WATER LOOP,Demand,NODE 55,NODE 56,MAIN SERVICE WATER LOOP DEMAND BRANCHES,MAIN SERVICE WATER LOOP DEMAND CONNECTOR LIST
   Plant Loop Connector,Splitter,MAIN SERVICE WATER LOOP DEMAND SPLITTER,MAIN SERVICE WATER LOOP,Demand,3
     Plant Loop Connector Branches,1,Splitter,MAIN SERVICE WATER LOOP DEMAND SPLITTER,MAIN SERVICE WATER LOOP DEMAND INLET BRANCH,MAIN SERVICE WATER LOOP DEMAND BRANCH 1,MAIN SERVICE WATER LOOP,Demand
     Plant Loop Connector Nodes,   1,Splitter,MAIN SERVICE WATER LOOP DEMAND SPLITTER,NODE 64,NODE 57,MAIN SERVICE WATER LOOP,Demand
     Plant Loop Connector Branches,2,Splitter,MAIN SERVICE WATER LOOP DEMAND SPLITTER,MAIN SERVICE WATER LOOP DEMAND INLET BRANCH,MAIN SERVICE WATER LOOP DEMAND BRANCH 2,MAIN SERVICE WATER LOOP,Demand
     Plant Loop Connector Nodes,   2,Splitter,MAIN SERVICE WATER LOOP DEMAND SPLITTER,NODE 64,MAIN SERVICE WATER LOOP DEMAND BRANCH 2 PIPE INLET NODE,MAIN SERVICE WATER LOOP,Demand
     Plant Loop Connector Branches,3,Splitter,MAIN SERVICE WATER LOOP DEMAND SPLITTER,MAIN SERVICE WATER LOOP DEMAND INLET BRANCH,MAIN SERVICE WATER LOOP DEMAND BYPASS BRANCH,MAIN SERVICE WATER LOOP,Demand
     Plant Loop Connector Nodes,   3,Splitter,MAIN SERVICE WATER LOOP DEMAND SPLITTER,NODE 64,MAIN SERVICE WATER LOOP DEMAND BYPASS PIPE INLET NODE,MAIN SERVICE WATER LOOP,Demand
   Plant Loop Connector,Mixer,MAIN SERVICE WATER LOOP DEMAND MIXER,MAIN SERVICE WATER LOOP,Demand,3
     Plant Loop Connector Branches,1,Mixer,MAIN SERVICE WATER LOOP DEMAND MIXER,MAIN SERVICE WATER LOOP DEMAND BRANCH 1,MAIN SERVICE WATER LOOP DEMAND OUTLET BRANCH,MAIN SERVICE WATER LOOP,Demand
     Plant Loop Connector Nodes,   1,Mixer,MAIN SERVICE WATER LOOP DEMAND MIXER,NODE 62,NODE 65,MAIN SERVICE WATER LOOP,Demand
     Plant Loop Connector Branches,2,Mixer,MAIN SERVICE WATER LOOP DEMAND MIXER,MAIN SERVICE WATER LOOP DEMAND BRANCH 2,MAIN SERVICE WATER LOOP DEMAND OUTLET BRANCH,MAIN SERVICE WATER LOOP,Demand
     Plant Loop Connector Nodes,   2,Mixer,MAIN SERVICE WATER LOOP DEMAND MIXER,MAIN SERVICE WATER LOOP DEMAND BRANCH 2 PIPE OUTLET NODE,NODE 65,MAIN SERVICE WATER LOOP,Demand
     Plant Loop Connector Branches,3,Mixer,MAIN SERVICE WATER LOOP DEMAND MIXER,MAIN SERVICE WATER LOOP DEMAND BYPASS BRANCH,MAIN SERVICE WATER LOOP DEMAND OUTLET BRANCH,MAIN SERVICE WATER LOOP,Demand
     Plant Loop Connector Nodes,   3,Mixer,MAIN SERVICE WATER LOOP DEMAND MIXER,MAIN SERVICE WATER LOOP DEMAND BYPASS PIPE OUTLET NODE,NODE 65,MAIN SERVICE WATER LOOP,Demand
 Plant Loop,MAIN SERVICE WATER LOOP,Supply,NODE 52,NODE 53,MAIN SERVICE WATER LOOP SUPPLY BRANCHES,MAIN SERVICE WATER LOOP SUPPLY CONNECTOR LIST
   Plant Loop Connector,Splitter,MAIN SERVICE WATER LOOP SUPPLY SPLITTER,MAIN SERVICE WATER LOOP,Supply,2
     Plant Loop Connector Branches,1,Splitter,MAIN SERVICE WATER LOOP SUPPLY SPLITTER,MAIN SERVICE WATER LOOP SUPPLY INLET BRANCH,MAIN SERVICE WATER LOOP SUPPLY BRANCH 1,MAIN SERVICE WATER LOOP,Supply
     Plant Loop Connector Nodes,   1,Splitter,MAIN SERVICE WATER LOOP SUPPLY SPLITTER,NODE 58,NODE 54,MAIN SERVICE WATER LOOP,Supply
     Plant Loop Connector Branches,2,Splitter,MAIN SERVICE WATER LOOP SUPPLY SPLITTER,MAIN SERVICE WATER LOOP SUPPLY INLET BRANCH,MAIN SERVICE WATER LOOP SUPPLY BRANCH 2,MAIN SERVICE WATER LOOP,Supply
     Plant Loop Connector Nodes,   2,Splitter,MAIN SERVICE WATER LOOP SUPPLY SPLITTER,NODE 58,NODE 60,MAIN SERVICE WATER LOOP,Supply
   Plant Loop Connector,Mixer,MAIN SERVICE WATER LOOP SUPPLY MIXER,MAIN SERVICE WATER LOOP,Supply,2
     Plant Loop Connector Branches,1,Mixer,MAIN SERVICE WATER LOOP SUPPLY MIXER,MAIN SERVICE WATER LOOP SUPPLY BRANCH 1,MAIN SERVICE WATER LOOP SUPPLY OUTLET BRANCH,MAIN SERVICE WATER LOOP,Supply
     Plant Loop Connector Nodes,   1,Mixer,MAIN SERVICE WATER LOOP SUPPLY MIXER,NODE 59,NODE 63,MAIN SERVICE WATER LOOP,Supply
     Plant Loop Connector Branches,2,Mixer,MAIN SERVICE WATER LOOP SUPPLY MIXER,MAIN SERVICE WATER LOOP SUPPLY BRANCH 2,MAIN SERVICE WATER LOOP SUPPLY OUTLET BRANCH,MAIN SERVICE WATER LOOP,Supply
     Plant Loop Connector Nodes,   2,Mixer,MAIN SERVICE WATER LOOP SUPPLY MIXER,NODE 61,NODE 63,MAIN SERVICE WATER LOOP,Supply
 Plant Loop Supply Connection,MAIN SERVICE WATER LOOP,NODE 53,NODE 55
 Plant Loop Return Connection,MAIN SERVICE WATER LOOP,NODE 56,NODE 52
! ===============================================================
! <# Condenser Loops>,<Number of Condenser Loops>
 #Condenser Loops,0
! <Condenser Loop>,<Condenser Loop Name>,<Loop Type>,<Inlet Node Name>,<Outlet Node Name>,<Branch List>,<Connector List>
! <Condenser Loop Connector>,<Connector Type>,<Connector Name>,<Loop Name>,<Loop Type>,<Number of Inlets/Outlets>
! <Condenser Loop Connector Branches>,<Connector Node Count>,<Connector Type>,<Connector Name>,<Inlet Branch>,<Outlet Branch>,<Loop Name>,<Loop Type>
! <Condenser Loop Connector Nodes>,<Connector Node Count>,<Connector Type>,<Connector Name>,<Inlet Node>,<Outlet Node>,<Loop Name>,<Loop Type>
! <Condenser Loop Supply Connection>,<Condenser Loop Name>,<Supply Side Outlet Node Name>,<Demand Side Inlet Node Name>
! <Condenser Loop Return Connection>,<Condenser Loop Name>,<Demand Side Outlet Node Name>,<Supply Side Inlet Node Name>
! ===============================================================
! <# Controlled Zones>,<Number of Controlled Zones>
 #Controlled Zones,5
! <Controlled Zone>,<Controlled Zone Name>,<Equip List Name>,<Control List Name>,<Zone Node Name>,<# Inlet Nodes>,<# Exhaust Nodes>,<# Return Nodes>
! <Controlled Zone Inlet>,<Inlet Node Count>,<Controlled Zone Name>,<Supply Air Inlet Node Name>,<SD Sys:Cooling/Heating [DD:Cooling] Inlet Node Name>,<DD Sys:Heating Inlet Node Name>
! <Controlled Zone Exhaust>,<Exhaust Node Count>,<Controlled Zone Name>,<Exhaust Air Node Name>
 Controlled Zone,CORE_ZN ZN,CORE_ZN ZN EQUIPMENT LIST,,NODE 2,1,0,1
   Controlled Zone Inlet,1,CORE_ZN ZN,NODE 47,NODE 47,N/A
   Controlled Zone Return,1,CORE_ZN ZN,NODE 51
 Controlled Zone,PERIMETER_ZN_1 ZN,PERIMETER_ZN_1 ZN EQUIPMENT LIST,,NODE 3,1,0,1
   Controlled Zone Inlet,1,PERIMETER_ZN_1 ZN,NODE 11,NODE 11,N/A
   Controlled Zone Return,1,PERIMETER_ZN_1 ZN,NODE 15
 Controlled Zone,PERIMETER_ZN_2 ZN,PERIMETER_ZN_2 ZN EQUIPMENT LIST,,NODE 1,1,0,1
   Controlled Zone Inlet,1,PERIMETER_ZN_2 ZN,NODE 20,NODE 20,N/A
   Controlled Zone Return,1,PERIMETER_ZN_2 ZN,NODE 24
 Controlled Zone,PERIMETER_ZN_3 ZN,PERIMETER_ZN_3 ZN EQUIPMENT LIST,,NODE 4,1,0,1
   Controlled Zone Inlet,1,PERIMETER_ZN_3 ZN,NODE 29,NODE 29,N/A
   Controlled Zone Return,1,PERIMETER_ZN_3 ZN,NODE 33
 Controlled Zone,PERIMETER_ZN_4 ZN,PERIMETER_ZN_4 ZN EQUIPMENT LIST,,NODE 5,1,0,1
   Controlled Zone Inlet,1,PERIMETER_ZN_4 ZN,NODE 38,NODE 38,N/A
   Controlled Zone Return,1,PERIMETER_ZN_4 ZN,NODE 42
! ===============================================================
! <#Zone Equipment Lists>,<Number of Zone Equipment Lists>
 #Zone Equipment Lists,5
! <Zone Equipment List>,<Zone Equipment List Count>,<Zone Equipment List Name>,<Zone Name>,<Number of Components>
! <Zone Equipment Component>,<Component Count>,<Component Type>,<Component Name>,<Zone Name>,<Heating Priority>,<Cooling Priority>
 Zone Equipment List,2,CORE_ZN ZN EQUIPMENT LIST,CORE_ZN ZN,1
   Zone Equipment Component,1,AIRTERMINAL:SINGLEDUCT:UNCONTROLLED,CORE_ZN ZN PSZ-AC-1 DIFFUSER,CORE_ZN ZN,1,1
 Zone Equipment List,3,PERIMETER_ZN_1 ZN EQUIPMENT LIST,PERIMETER_ZN_1 ZN,1
   Zone Equipment Component,1,AIRTERMINAL:SINGLEDUCT:UNCONTROLLED,PERIMETER_ZN_1 ZN PSZ-AC-2 DIFFUSER,PERIMETER_ZN_1 ZN,1,1
 Zone Equipment List,4,PERIMETER_ZN_2 ZN EQUIPMENT LIST,PERIMETER_ZN_2 ZN,1
   Zone Equipment Component,1,AIRTERMINAL:SINGLEDUCT:UNCONTROLLED,PERIMETER_ZN_2 ZN PSZ-AC-3 DIFFUSER,PERIMETER_ZN_2 ZN,1,1
 Zone Equipment List,5,PERIMETER_ZN_3 ZN EQUIPMENT LIST,PERIMETER_ZN_3 ZN,1
   Zone Equipment Component,1,AIRTERMINAL:SINGLEDUCT:UNCONTROLLED,PERIMETER_ZN_3 ZN PSZ-AC-4 DIFFUSER,PERIMETER_ZN_3 ZN,1,1
 Zone Equipment List,6,PERIMETER_ZN_4 ZN EQUIPMENT LIST,PERIMETER_ZN_4 ZN,1
   Zone Equipment Component,1,AIRTERMINAL:SINGLEDUCT:UNCONTROLLED,PERIMETER_ZN_4 ZN PSZ-AC-5 DIFFUSER,PERIMETER_ZN_4 ZN,1,1
! ===============================================================
! <#AirLoopHVACs>,<Number of AirLoopHVACs>
 #AirLoopHVACs,5
! <AirLoopHVAC>,<Air Loop Name>,<# Return Nodes>,<# Supply Nodes>,<# Zones Cooled>,<# Zones Heated>,<Outdoor Air Used>
! <AirLoop Return Connections>,<Connection Count>,<AirLoopHVAC Name>,<Zn Eqp Return Node #>,<Zn Eqp Return Node Name>,<AirLoop Return Node #>,<Air Loop Return Node Name>
! <AirLoop Supply Connections>,<Connection Count>,<AirLoopHVAC Name>,<Zn Eqp Supply Node #>,<Zn Eqp Supply Node Name>,<AirLoop Supply Node #>,<Air Loop Supply Node Name>
! <Cooled Zone Info>,<Cooled Zone Count>,<Cooled Zone Name>,<Cooled Zone Inlet Node #>,<Cooled Zone Inlet Node Name>,<AirLoopHVAC Name>
! <Heated Zone Info>,<Heated Zone Count>,<Heated Zone Name>,<Heated Zone Inlet Node #>,<Heated Zone Inlet Node Name>,<AirLoopHVAC Name>
! <Outdoor Air Connections>,<OA Inlet Node #>,<OA Return Air Inlet Node Name>,<OA Outlet Node #>,<OA Mixed Air Outlet Node Name>,<AirLoopHVAC Name>
! <AirLoopHVAC Connector>,<Connector Type>,<Connector Name>,<Loop Name>,<Loop Type>,<Number of Inlets/Outlets>
! <AirLoopHVAC Connector Branches>,<Connector Node Count>,<Connector Type>,<Connector Name>,<Inlet Branch>,<Outlet Branch>,<Loop Name>,<Loop Type>
! <AirLoopHVAC Connector Nodes>,<Connector Node Count>,<Connector Type>,<Connector Name>,<Inlet Node>,<Outlet Node>,<Loop Name>,<Loop Type>
 AirLoopHVAC,CORE_ZN ZN PSZ-AC-1,1,1,1,0,Yes
   AirLoop Return Connections,1,CORE_ZN ZN PSZ-AC-1,54,NODE 46,16,NODE 43
   AirLoop Supply Connections,1,CORE_ZN ZN PSZ-AC-1,7,NODE 45,6,NODE 44
   Cooled Zone Info,1,CORE_ZN ZN,1,NODE 47,CORE_ZN ZN PSZ-AC-1
   Outdoor Air Connections,16,NODE 43,17,NODE 73,CORE_ZN ZN PSZ-AC-1
 AirLoopHVAC,PERIMETER_ZN_1 ZN PSZ-AC-2,1,1,1,0,Yes
   AirLoop Return Connections,1,PERIMETER_ZN_1 ZN PSZ-AC-2,55,NODE 10,18,NODE 7
   AirLoop Supply Connections,1,PERIMETER_ZN_1 ZN PSZ-AC-2,9,NODE 9,8,NODE 8
   Cooled Zone Info,1,PERIMETER_ZN_1 ZN,2,NODE 11,PERIMETER_ZN_1 ZN PSZ-AC-2
   Outdoor Air Connections,18,NODE 7,19,NODE 74,PERIMETER_ZN_1 ZN PSZ-AC-2
 AirLoopHVAC,PERIMETER_ZN_2 ZN PSZ-AC-3,1,1,1,0,Yes
   AirLoop Return Connections,1,PERIMETER_ZN_2 ZN PSZ-AC-3,56,NODE 19,20,NODE 16
   AirLoop Supply Connections,1,PERIMETER_ZN_2 ZN PSZ-AC-3,11,NODE 18,10,NODE 17
   Cooled Zone Info,1,PERIMETER_ZN_2 ZN,3,NODE 20,PERIMETER_ZN_2 ZN PSZ-AC-3
   Outdoor Air Connections,20,NODE 16,21,NODE 75,PERIMETER_ZN_2 ZN PSZ-AC-3
 AirLoopHVAC,PERIMETER_ZN_3 ZN PSZ-AC-4,1,1,1,0,Yes
   AirLoop Return Connections,1,PERIMETER_ZN_3 ZN PSZ-AC-4,57,NODE 28,22,NODE 25
   AirLoop Supply Connections,1,PERIMETER_ZN_3 ZN PSZ-AC-4,13,NODE 27,12,NODE 26
   Cooled Zone Info,1,PERIMETER_ZN_3 ZN,4,NODE 29,PERIMETER_ZN_3 ZN PSZ-AC-4
   Outdoor Air Connections,22,NODE 25,23,NODE 76,PERIMETER_ZN_3 ZN PSZ-AC-4
 AirLoopHVAC,PERIMETER_ZN_4 ZN PSZ-AC-5,1,1,1,0,Yes
   AirLoop Return Connections,1,PERIMETER_ZN_4 ZN PSZ-AC-5,58,NODE 37,24,NODE 34
   AirLoop Supply Connections,1,PERIMETER_ZN_4 ZN PSZ-AC-5,15,NODE 36,14,NODE 35
   Cooled Zone Info,1,PERIMETER_ZN_4 ZN,5,NODE 38,PERIMETER_ZN_4 ZN PSZ-AC-5
   Outdoor Air Connections,24,NODE 34,25,NODE 77,PERIMETER_ZN_4 ZN PSZ-AC-5
! ===============================================================
! <#Parent Node Connections>,<Number of Parent Node Connections>
 #Parent Node Connections,68
! <Parent Node Connection>,<Node Name>,<Node ObjectType>,<Node ObjectName>,<Node ConnectionType>,<Node FluidStream>
 Parent Node Connection,NODE 43,BRANCH,CORE_ZN ZN PSZ-AC-1 MAIN BRANCH,Inlet,1
 Parent Node Connection,NODE 73,BRANCH,CORE_ZN ZN PSZ-AC-1 MAIN BRANCH,Internal,1
 Parent Node Connection,NODE 44,BRANCH,CORE_ZN ZN PSZ-AC-1 MAIN BRANCH,Outlet,1
 Parent Node Connection,NODE 7,BRANCH,PERIMETER_ZN_1 ZN PSZ-AC-2 MAIN BRANCH,Inlet,1
 Parent Node Connection,NODE 74,BRANCH,PERIMETER_ZN_1 ZN PSZ-AC-2 MAIN BRANCH,Internal,1
 Parent Node Connection,NODE 8,BRANCH,PERIMETER_ZN_1 ZN PSZ-AC-2 MAIN BRANCH,Outlet,1
 Parent Node Connection,NODE 16,BRANCH,PERIMETER_ZN_2 ZN PSZ-AC-3 MAIN BRANCH,Inlet,1
 Parent Node Connection,NODE 75,BRANCH,PERIMETER_ZN_2 ZN PSZ-AC-3 MAIN BRANCH,Internal,1
 Parent Node Connection,NODE 17,BRANCH,PERIMETER_ZN_2 ZN PSZ-AC-3 MAIN BRANCH,Outlet,1
 Parent Node Connection,NODE 25,BRANCH,PERIMETER_ZN_3 ZN PSZ-AC-4 MAIN BRANCH,Inlet,1
 Parent Node Connection,NODE 76,BRANCH,PERIMETER_ZN_3 ZN PSZ-AC-4 MAIN BRANCH,Internal,1
 Parent Node Connection,NODE 26,BRANCH,PERIMETER_ZN_3 ZN PSZ-AC-4 MAIN BRANCH,Outlet,1
 Parent Node Connection,NODE 34,BRANCH,PERIMETER_ZN_4 ZN PSZ-AC-5 MAIN BRANCH,Inlet,1
 Parent Node Connection,NODE 77,BRANCH,PERIMETER_ZN_4 ZN PSZ-AC-5 MAIN BRANCH,Internal,1
 Parent Node Connection,NODE 35,BRANCH,PERIMETER_ZN_4 ZN PSZ-AC-5 MAIN BRANCH,Outlet,1
 Parent Node Connection,NODE 52,BRANCH,MAIN SERVICE WATER LOOP SUPPLY INLET BRANCH,Inlet,1
 Parent Node Connection,NODE 58,BRANCH,MAIN SERVICE WATER LOOP SUPPLY INLET BRANCH,Outlet,1
 Parent Node Connection,NODE 54,BRANCH,MAIN SERVICE WATER LOOP SUPPLY BRANCH 1,Inlet,1
 Parent Node Connection,NODE 59,BRANCH,MAIN SERVICE WATER LOOP SUPPLY BRANCH 1,Outlet,1
 Parent Node Connection,NODE 60,BRANCH,MAIN SERVICE WATER LOOP SUPPLY BRANCH 2,Inlet,1
 Parent Node Connection,NODE 61,BRANCH,MAIN SERVICE WATER LOOP SUPPLY BRANCH 2,Outlet,1
 Parent Node Connection,NODE 63,BRANCH,MAIN SERVICE WATER LOOP SUPPLY OUTLET BRANCH,Inlet,1
 Parent Node Connection,NODE 53,BRANCH,MAIN SERVICE WATER LOOP SUPPLY OUTLET BRANCH,Outlet,1
 Parent Node Connection,NODE 55,BRANCH,MAIN SERVICE WATER LOOP DEMAND INLET BRANCH,Inlet,1
 Parent Node Connection,NODE 64,BRANCH,MAIN SERVICE WATER LOOP DEMAND INLET BRANCH,Outlet,1
 Parent Node Connection,NODE 57,BRANCH,MAIN SERVICE WATER LOOP DEMAND BRANCH 1,Inlet,1
 Parent Node Connection,NODE 62,BRANCH,MAIN SERVICE WATER LOOP DEMAND BRANCH 1,Outlet,1
 Parent Node Connection,MAIN SERVICE WATER LOOP DEMAND BRANCH 2 PIPE INLET NODE,BRANCH,MAIN SERVICE WATER LOOP DEMAND BRANCH 2,Inlet,1
 Parent Node Connection,MAIN SERVICE WATER LOOP DEMAND BRANCH 2 PIPE OUTLET NODE,BRANCH,MAIN SERVICE WATER LOOP DEMAND BRANCH 2,Outlet,1
 Parent Node Connection,MAIN SERVICE WATER LOOP DEMAND BYPASS PIPE INLET NODE,BRANCH,MAIN SERVICE WATER LOOP DEMAND BYPASS BRANCH,Inlet,1
 Parent Node Connection,MAIN SERVICE WATER LOOP DEMAND BYPASS PIPE OUTLET NODE,BRANCH,MAIN SERVICE WATER LOOP DEMAND BYPASS BRANCH,Outlet,1
 Parent Node Connection,NODE 65,BRANCH,MAIN SERVICE WATER LOOP DEMAND OUTLET BRANCH,Inlet,1
 Parent Node Connection,NODE 56,BRANCH,MAIN SERVICE WATER LOOP DEMAND OUTLET BRANCH,Outlet,1
 Parent Node Connection,NODE 45,AIRLOOPHVAC:SUPPLYPATH,CORE_ZN ZN PSZ-AC-1 NODE 45 SUPPLY PATH,Inlet,1
 Parent Node Connection,NODE 9,AIRLOOPHVAC:SUPPLYPATH,PERIMETER_ZN_1 ZN PSZ-AC-2 NODE 9 SUPPLY PATH,Inlet,1
 Parent Node Connection,NODE 18,AIRLOOPHVAC:SUPPLYPATH,PERIMETER_ZN_2 ZN PSZ-AC-3 NODE 18 SUPPLY PATH,Inlet,1
 Parent Node Connection,NODE 27,AIRLOOPHVAC:SUPPLYPATH,PERIMETER_ZN_3 ZN PSZ-AC-4 NODE 27 SUPPLY PATH,Inlet,1
 Parent Node Connection,NODE 36,AIRLOOPHVAC:SUPPLYPATH,PERIMETER_ZN_4 ZN PSZ-AC-5 NODE 36 SUPPLY PATH,Inlet,1
 Parent Node Connection,NODE 46,AIRLOOPHVAC:RETURNPATH,CORE_ZN ZN PSZ-AC-1 RETURN PATH,Outlet,1
 Parent Node Connection,NODE 10,AIRLOOPHVAC:RETURNPATH,PERIMETER_ZN_1 ZN PSZ-AC-2 RETURN PATH,Outlet,1
 Parent Node Connection,NODE 19,AIRLOOPHVAC:RETURNPATH,PERIMETER_ZN_2 ZN PSZ-AC-3 RETURN PATH,Outlet,1
 Parent Node Connection,NODE 28,AIRLOOPHVAC:RETURNPATH,PERIMETER_ZN_3 ZN PSZ-AC-4 RETURN PATH,Outlet,1
 Parent Node Connection,NODE 37,AIRLOOPHVAC:RETURNPATH,PERIMETER_ZN_4 ZN PSZ-AC-5 RETURN PATH,Outlet,1
 Parent Node Connection,NODE 52,PLANTLOOP,MAIN SERVICE WATER LOOP,Inlet,1
 Parent Node Connection,NODE 53,PLANTLOOP,MAIN SERVICE WATER LOOP,Outlet,1
 Parent Node Connection,NODE 55,PLANTLOOP,MAIN SERVICE WATER LOOP,Inlet,1
 Parent Node Connection,NODE 56,PLANTLOOP,MAIN SERVICE WATER LOOP,Outlet,1
 Parent Node Connection,NODE 53,PLANTLOOP,MAIN SERVICE WATER LOOP,Sensor,1
 Parent Node Connection,NODE 43,AIRLOOPHVAC,CORE_ZN ZN PSZ-AC-1,Inlet,1
 Parent Node Connection,NODE 46,AIRLOOPHVAC,CORE_ZN ZN PSZ-AC-1,Outlet,1
 Parent Node Connection,NODE 45,AIRLOOPHVAC,CORE_ZN ZN PSZ-AC-1,Inlet,1
 Parent Node Connection,NODE 44,AIRLOOPHVAC,CORE_ZN ZN PSZ-AC-1,Outlet,1
 Parent Node Connection,NODE 7,AIRLOOPHVAC,PERIMETER_ZN_1 ZN PSZ-AC-2,Inlet,1
 Parent Node Connection,NODE 10,AIRLOOPHVAC,PERIMETER_ZN_1 ZN PSZ-AC-2,Outlet,1
 Parent Node Connection,NODE 9,AIRLOOPHVAC,PERIMETER_ZN_1 ZN PSZ-AC-2,Inlet,1
 Parent Node Connection,NODE 8,AIRLOOPHVAC,PERIMETER_ZN_1 ZN PSZ-AC-2,Outlet,1
 Parent Node Connection,NODE 16,AIRLOOPHVAC,PERIMETER_ZN_2 ZN PSZ-AC-3,Inlet,1
 Parent Node Connection,NODE 19,AIRLOOPHVAC,PERIMETER_ZN_2 ZN PSZ-AC-3,Outlet,1
 Parent Node Connection,NODE 18,AIRLOOPHVAC,PERIMETER_ZN_2 ZN PSZ-AC-3,Inlet,1
 Parent Node Connection,NODE 17,AIRLOOPHVAC,PERIMETER_ZN_2 ZN PSZ-AC-3,Outlet,1
 Parent Node Connection,NODE 25,AIRLOOPHVAC,PERIMETER_ZN_3 ZN PSZ-AC-4,Inlet,1
 Parent Node Connection,NODE 28,AIRLOOPHVAC,PERIMETER_ZN_3 ZN PSZ-AC-4,Outlet,1
 Parent Node Connection,NODE 27,AIRLOOPHVAC,PERIMETER_ZN_3 ZN PSZ-AC-4,Inlet,1
 Parent Node Connection,NODE 26,AIRLOOPHVAC,PERIMETER_ZN_3 ZN PSZ-AC-4,Outlet,1
 Parent Node Connection,NODE 34,AIRLOOPHVAC,PERIMETER_ZN_4 ZN PSZ-AC-5,Inlet,1
 Parent Node Connection,NODE 37,AIRLOOPHVAC,PERIMETER_ZN_4 ZN PSZ-AC-5,Outlet,1
 Parent Node Connection,NODE 36,AIRLOOPHVAC,PERIMETER_ZN_4 ZN PSZ-AC-5,Inlet,1
 Parent Node Connection,NODE 35,AIRLOOPHVAC,PERIMETER_ZN_4 ZN PSZ-AC-5,Outlet,1
! ===============================================================
! <#Non-Parent Node Connections>,<Number of Non-Parent Node Connections>
 #Non-Parent Node Connections,164
! <Non-Parent Node Connection>,<Node Name>,<Node ObjectType>,<Node ObjectName>,<Node ConnectionType>,<Node FluidStream>
 Non-Parent Node Connection,NODE 2,ZONEHVAC:EQUIPMENTCONNECTIONS,CORE_ZN ZN,ZoneNode,1
 Non-Parent Node Connection,NODE 47,ZONEHVAC:EQUIPMENTCONNECTIONS,CORE_ZN ZN,ZoneInlet,1
 Non-Parent Node Connection,NODE 51,ZONEHVAC:EQUIPMENTCONNECTIONS,CORE_ZN ZN,ZoneReturn,1
 Non-Parent Node Connection,NODE 3,ZONEHVAC:EQUIPMENTCONNECTIONS,PERIMETER_ZN_1 ZN,ZoneNode,1
 Non-Parent Node Connection,NODE 11,ZONEHVAC:EQUIPMENTCONNECTIONS,PERIMETER_ZN_1 ZN,ZoneInlet,1
 Non-Parent Node Connection,NODE 15,ZONEHVAC:EQUIPMENTCONNECTIONS,PERIMETER_ZN_1 ZN,ZoneReturn,1
 Non-Parent Node Connection,NODE 1,ZONEHVAC:EQUIPMENTCONNECTIONS,PERIMETER_ZN_2 ZN,ZoneNode,1
 Non-Parent Node Connection,NODE 20,ZONEHVAC:EQUIPMENTCONNECTIONS,PERIMETER_ZN_2 ZN,ZoneInlet,1
 Non-Parent Node Connection,NODE 24,ZONEHVAC:EQUIPMENTCONNECTIONS,PERIMETER_ZN_2 ZN,ZoneReturn,1
 Non-Parent Node Connection,NODE 4,ZONEHVAC:EQUIPMENTCONNECTIONS,PERIMETER_ZN_3 ZN,ZoneNode,1
 Non-Parent Node Connection,NODE 29,ZONEHVAC:EQUIPMENTCONNECTIONS,PERIMETER_ZN_3 ZN,ZoneInlet,1
 Non-Parent Node Connection,NODE 33,ZONEHVAC:EQUIPMENTCONNECTIONS,PERIMETER_ZN_3 ZN,ZoneReturn,1
 Non-Parent Node Connection,NODE 5,ZONEHVAC:EQUIPMENTCONNECTIONS,PERIMETER_ZN_4 ZN,ZoneNode,1
 Non-Parent Node Connection,NODE 38,ZONEHVAC:EQUIPMENTCONNECTIONS,PERIMETER_ZN_4 ZN,ZoneInlet,1
 Non-Parent Node Connection,NODE 42,ZONEHVAC:EQUIPMENTCONNECTIONS,PERIMETER_ZN_4 ZN,ZoneReturn,1
 Non-Parent Node Connection,NODE 54,WATERHEATER:MIXED,40.0GAL ELECTRICITY WATER HEATER - 40KBTU/HR 1.0 THERM EFF,Inlet,1
 Non-Parent Node Connection,NODE 59,WATERHEATER:MIXED,40.0GAL ELECTRICITY WATER HEATER - 40KBTU/HR 1.0 THERM EFF,Outlet,1
 Non-Parent Node Connection,NODE 48,OUTDOORAIR:NODELIST,OutdoorAir:NodeList,OutdoorAir,1
 Non-Parent Node Connection,NODE 12,OUTDOORAIR:NODELIST,OutdoorAir:NodeList,OutdoorAir,2
 Non-Parent Node Connection,NODE 21,OUTDOORAIR:NODELIST,OutdoorAir:NodeList,OutdoorAir,3
 Non-Parent Node Connection,NODE 30,OUTDOORAIR:NODELIST,OutdoorAir:NodeList,OutdoorAir,4
 Non-Parent Node Connection,NODE 39,OUTDOORAIR:NODELIST,OutdoorAir:NodeList,OutdoorAir,5
 Non-Parent Node Connection,MODEL OUTDOOR AIR NODE,OUTDOORAIR:NODE,OutdoorAir:Node,OutdoorAir,6
 Non-Parent Node Connection,NODE 53,SETPOINTMANAGER:SCHEDULED,SERVICE HOT WATER SETPOINT MANAGER,Setpoint,1
 Non-Parent Node Connection,NODE 2,SETPOINTMANAGER:SINGLEZONE:REHEAT,NODE 73 OS DEFAULT SPM,Sensor,1
 Non-Parent Node Connection,NODE 47,SETPOINTMANAGER:SINGLEZONE:REHEAT,NODE 73 OS DEFAULT SPM,Sensor,1
 Non-Parent Node Connection,NODE 73,SETPOINTMANAGER:SINGLEZONE:REHEAT,NODE 73 OS DEFAULT SPM,Setpoint,1
 Non-Parent Node Connection,NODE 2,SETPOINTMANAGER:SINGLEZONE:REHEAT,SETPOINT MANAGER SINGLE ZONE REHEAT 5,Sensor,1
 Non-Parent Node Connection,NODE 47,SETPOINTMANAGER:SINGLEZONE:REHEAT,SETPOINT MANAGER SINGLE ZONE REHEAT 5,Sensor,1
 Non-Parent Node Connection,NODE 44,SETPOINTMANAGER:SINGLEZONE:REHEAT,SETPOINT MANAGER SINGLE ZONE REHEAT 5,Setpoint,1
 Non-Parent Node Connection,NODE 3,SETPOINTMANAGER:SINGLEZONE:REHEAT,NODE 74 OS DEFAULT SPM,Sensor,1
 Non-Parent Node Connection,NODE 11,SETPOINTMANAGER:SINGLEZONE:REHEAT,NODE 74 OS DEFAULT SPM,Sensor,1
 Non-Parent Node Connection,NODE 74,SETPOINTMANAGER:SINGLEZONE:REHEAT,NODE 74 OS DEFAULT SPM,Setpoint,1
 Non-Parent Node Connection,NODE 3,SETPOINTMANAGER:SINGLEZONE:REHEAT,SETPOINT MANAGER SINGLE ZONE REHEAT 1,Sensor,1
 Non-Parent Node Connection,NODE 11,SETPOINTMANAGER:SINGLEZONE:REHEAT,SETPOINT MANAGER SINGLE ZONE REHEAT 1,Sensor,1
 Non-Parent Node Connection,NODE 8,SETPOINTMANAGER:SINGLEZONE:REHEAT,SETPOINT MANAGER SINGLE ZONE REHEAT 1,Setpoint,1
 Non-Parent Node Connection,NODE 1,SETPOINTMANAGER:SINGLEZONE:REHEAT,NODE 75 OS DEFAULT SPM,Sensor,1
 Non-Parent Node Connection,NODE 20,SETPOINTMANAGER:SINGLEZONE:REHEAT,NODE 75 OS DEFAULT SPM,Sensor,1
 Non-Parent Node Connection,NODE 75,SETPOINTMANAGER:SINGLEZONE:REHEAT,NODE 75 OS DEFAULT SPM,Setpoint,1
 Non-Parent Node Connection,NODE 1,SETPOINTMANAGER:SINGLEZONE:REHEAT,SETPOINT MANAGER SINGLE ZONE REHEAT 2,Sensor,1
 Non-Parent Node Connection,NODE 20,SETPOINTMANAGER:SINGLEZONE:REHEAT,SETPOINT MANAGER SINGLE ZONE REHEAT 2,Sensor,1
 Non-Parent Node Connection,NODE 17,SETPOINTMANAGER:SINGLEZONE:REHEAT,SETPOINT MANAGER SINGLE ZONE REHEAT 2,Setpoint,1
 Non-Parent Node Connection,NODE 4,SETPOINTMANAGER:SINGLEZONE:REHEAT,NODE 76 OS DEFAULT SPM,Sensor,1
 Non-Parent Node Connection,NODE 29,SETPOINTMANAGER:SINGLEZONE:REHEAT,NODE 76 OS DEFAULT SPM,Sensor,1
 Non-Parent Node Connection,NODE 76,SETPOINTMANAGER:SINGLEZONE:REHEAT,NODE 76 OS DEFAULT SPM,Setpoint,1
 Non-Parent Node Connection,NODE 4,SETPOINTMANAGER:SINGLEZONE:REHEAT,SETPOINT MANAGER SINGLE ZONE REHEAT 3,Sensor,1
 Non-Parent Node Connection,NODE 29,SETPOINTMANAGER:SINGLEZONE:REHEAT,SETPOINT MANAGER SINGLE ZONE REHEAT 3,Sensor,1
 Non-Parent Node Connection,NODE 26,SETPOINTMANAGER:SINGLEZONE:REHEAT,SETPOINT MANAGER SINGLE ZONE REHEAT 3,Setpoint,1
 Non-Parent Node Connection,NODE 5,SETPOINTMANAGER:SINGLEZONE:REHEAT,NODE 77 OS DEFAULT SPM,Sensor,1
 Non-Parent Node Connection,NODE 38,SETPOINTMANAGER:SINGLEZONE:REHEAT,NODE 77 OS DEFAULT SPM,Sensor,1
 Non-Parent Node Connection,NODE 77,SETPOINTMANAGER:SINGLEZONE:REHEAT,NODE 77 OS DEFAULT SPM,Setpoint,1
 Non-Parent Node Connection,NODE 5,SETPOINTMANAGER:SINGLEZONE:REHEAT,SETPOINT MANAGER SINGLE ZONE REHEAT 4,Sensor,1
 Non-Parent Node Connection,NODE 38,SETPOINTMANAGER:SINGLEZONE:REHEAT,SETPOINT MANAGER SINGLE ZONE REHEAT 4,Sensor,1
 Non-Parent Node Connection,NODE 35,SETPOINTMANAGER:SINGLEZONE:REHEAT,SETPOINT MANAGER SINGLE ZONE REHEAT 4,Setpoint,1
 Non-Parent Node Connection,NODE 60,PIPE:ADIABATIC,PIPE ADIABATIC 1,Inlet,1
 Non-Parent Node Connection,NODE 61,PIPE:ADIABATIC,PIPE ADIABATIC 1,Outlet,1
 Non-Parent Node Connection,NODE 63,PIPE:ADIABATIC,PIPE ADIABATIC 3,Inlet,1
 Non-Parent Node Connection,NODE 53,PIPE:ADIABATIC,PIPE ADIABATIC 3,Outlet,1
 Non-Parent Node Connection,NODE 55,PIPE:ADIABATIC,PIPE ADIABATIC 4,Inlet,1
 Non-Parent Node Connection,NODE 64,PIPE:ADIABATIC,PIPE ADIABATIC 4,Outlet,1
 Non-Parent Node Connection,NODE 57,PIPE:ADIABATIC,PIPE ADIABATIC 2,Inlet,1
 Non-Parent Node Connection,NODE 62,PIPE:ADIABATIC,PIPE ADIABATIC 2,Outlet,1
 Non-Parent Node Connection,MAIN SERVICE WATER LOOP DEMAND BRANCH 2 PIPE INLET NODE,PIPE:ADIABATIC,MAIN SERVICE WATER LOOP DEMAND BRANCH 2 PIPE,Inlet,1
 Non-Parent Node Connection,MAIN SERVICE WATER LOOP DEMAND BRANCH 2 PIPE OUTLET NODE,PIPE:ADIABATIC,MAIN SERVICE WATER LOOP DEMAND BRANCH 2 PIPE,Outlet,1
 Non-Parent Node Connection,MAIN SERVICE WATER LOOP DEMAND BYPASS PIPE INLET NODE,PIPE:ADIABATIC,MAIN SERVICE WATER LOOP DEMAND BYPASS PIPE,Inlet,1
 Non-Parent Node Connection,MAIN SERVICE WATER LOOP DEMAND BYPASS PIPE OUTLET NODE,PIPE:ADIABATIC,MAIN SERVICE WATER LOOP DEMAND BYPASS PIPE,Outlet,1
 Non-Parent Node Connection,NODE 65,PIPE:ADIABATIC,PIPE ADIABATIC 5,Inlet,1
 Non-Parent Node Connection,NODE 56,PIPE:ADIABATIC,PIPE ADIABATIC 5,Outlet,1
 Non-Parent Node Connection,NODE 64,CONNECTOR:SPLITTER,MAIN SERVICE WATER LOOP DEMAND SPLITTER,Inlet,1
 Non-Parent Node Connection,NODE 57,CONNECTOR:SPLITTER,MAIN SERVICE WATER LOOP DEMAND SPLITTER,Outlet,1
 Non-Parent Node Connection,MAIN SERVICE WATER LOOP DEMAND BRANCH 2 PIPE INLET NODE,CONNECTOR:SPLITTER,MAIN SERVICE WATER LOOP DEMAND SPLITTER,Outlet,1
 Non-Parent Node Connection,MAIN SERVICE WATER LOOP DEMAND BYPASS PIPE INLET NODE,CONNECTOR:SPLITTER,MAIN SERVICE WATER LOOP DEMAND SPLITTER,Outlet,1
 Non-Parent Node Connection,NODE 65,CONNECTOR:MIXER,MAIN SERVICE WATER LOOP DEMAND MIXER,Outlet,1
 Non-Parent Node Connection,NODE 62,CONNECTOR:MIXER,MAIN SERVICE WATER LOOP DEMAND MIXER,Inlet,1
 Non-Parent Node Connection,MAIN SERVICE WATER LOOP DEMAND BRANCH 2 PIPE OUTLET NODE,CONNECTOR:MIXER,MAIN SERVICE WATER LOOP DEMAND MIXER,Inlet,1
 Non-Parent Node Connection,MAIN SERVICE WATER LOOP DEMAND BYPASS PIPE OUTLET NODE,CONNECTOR:MIXER,MAIN SERVICE WATER LOOP DEMAND MIXER,Inlet,1
 Non-Parent Node Connection,NODE 58,CONNECTOR:SPLITTER,MAIN SERVICE WATER LOOP SUPPLY SPLITTER,Inlet,1
 Non-Parent Node Connection,NODE 54,CONNECTOR:SPLITTER,MAIN SERVICE WATER LOOP SUPPLY SPLITTER,Outlet,1
 Non-Parent Node Connection,NODE 60,CONNECTOR:SPLITTER,MAIN SERVICE WATER LOOP SUPPLY SPLITTER,Outlet,1
 Non-Parent Node Connection,NODE 63,CONNECTOR:MIXER,MAIN SERVICE WATER LOOP SUPPLY MIXER,Outlet,1
 Non-Parent Node Connection,NODE 59,CONNECTOR:MIXER,MAIN SERVICE WATER LOOP SUPPLY MIXER,Inlet,1
 Non-Parent Node Connection,NODE 61,CONNECTOR:MIXER,MAIN SERVICE WATER LOOP SUPPLY MIXER,Inlet,1
 Non-Parent Node Connection,NODE 45,AIRLOOPHVAC:ZONESPLITTER,AIR LOOP HVAC ZONE SPLITTER 5,Inlet,1
 Non-Parent Node Connection,NODE 47,AIRLOOPHVAC:ZONESPLITTER,AIR LOOP HVAC ZONE SPLITTER 5,Outlet,1
 Non-Parent Node Connection,NODE 9,AIRLOOPHVAC:ZONESPLITTER,AIR LOOP HVAC ZONE SPLITTER 1,Inlet,1
 Non-Parent Node Connection,NODE 11,AIRLOOPHVAC:ZONESPLITTER,AIR LOOP HVAC ZONE SPLITTER 1,Outlet,1
 Non-Parent Node Connection,NODE 18,AIRLOOPHVAC:ZONESPLITTER,AIR LOOP HVAC ZONE SPLITTER 2,Inlet,1
 Non-Parent Node Connection,NODE 20,AIRLOOPHVAC:ZONESPLITTER,AIR LOOP HVAC ZONE SPLITTER 2,Outlet,1
 Non-Parent Node Connection,NODE 27,AIRLOOPHVAC:ZONESPLITTER,AIR LOOP HVAC ZONE SPLITTER 3,Inlet,1
 Non-Parent Node Connection,NODE 29,AIRLOOPHVAC:ZONESPLITTER,AIR LOOP HVAC ZONE SPLITTER 3,Outlet,1
 Non-Parent Node Connection,NODE 36,AIRLOOPHVAC:ZONESPLITTER,AIR LOOP HVAC ZONE SPLITTER 4,Inlet,1
 Non-Parent Node Connection,NODE 38,AIRLOOPHVAC:ZONESPLITTER,AIR LOOP HVAC ZONE SPLITTER 4,Outlet,1
 Non-Parent Node Connection,NODE 47,AIRTERMINAL:SINGLEDUCT:UNCONTROLLED,CORE_ZN ZN PSZ-AC-1 DIFFUSER,Outlet,1
 Non-Parent Node Connection,NODE 11,AIRTERMINAL:SINGLEDUCT:UNCONTROLLED,PERIMETER_ZN_1 ZN PSZ-AC-2 DIFFUSER,Outlet,1
 Non-Parent Node Connection,NODE 20,AIRTERMINAL:SINGLEDUCT:UNCONTROLLED,PERIMETER_ZN_2 ZN PSZ-AC-3 DIFFUSER,Outlet,1
 Non-Parent Node Connection,NODE 29,AIRTERMINAL:SINGLEDUCT:UNCONTROLLED,PERIMETER_ZN_3 ZN PSZ-AC-4 DIFFUSER,Outlet,1
 Non-Parent Node Connection,NODE 38,AIRTERMINAL:SINGLEDUCT:UNCONTROLLED,PERIMETER_ZN_4 ZN PSZ-AC-5 DIFFUSER,Outlet,1
 Non-Parent Node Connection,NODE 46,AIRLOOPHVAC:ZONEMIXER,AIR LOOP HVAC ZONE MIXER 5,Outlet,1
 Non-Parent Node Connection,NODE 51,AIRLOOPHVAC:ZONEMIXER,AIR LOOP HVAC ZONE MIXER 5,Inlet,1
 Non-Parent Node Connection,NODE 10,AIRLOOPHVAC:ZONEMIXER,AIR LOOP HVAC ZONE MIXER 1,Outlet,1
 Non-Parent Node Connection,NODE 15,AIRLOOPHVAC:ZONEMIXER,AIR LOOP HVAC ZONE MIXER 1,Inlet,1
 Non-Parent Node Connection,NODE 19,AIRLOOPHVAC:ZONEMIXER,AIR LOOP HVAC ZONE MIXER 2,Outlet,1
 Non-Parent Node Connection,NODE 24,AIRLOOPHVAC:ZONEMIXER,AIR LOOP HVAC ZONE MIXER 2,Inlet,1
 Non-Parent Node Connection,NODE 28,AIRLOOPHVAC:ZONEMIXER,AIR LOOP HVAC ZONE MIXER 3,Outlet,1
 Non-Parent Node Connection,NODE 33,AIRLOOPHVAC:ZONEMIXER,AIR LOOP HVAC ZONE MIXER 3,Inlet,1
 Non-Parent Node Connection,NODE 37,AIRLOOPHVAC:ZONEMIXER,AIR LOOP HVAC ZONE MIXER 4,Outlet,1
 Non-Parent Node Connection,NODE 42,AIRLOOPHVAC:ZONEMIXER,AIR LOOP HVAC ZONE MIXER 4,Inlet,1
 Non-Parent Node Connection,NODE 73,OUTDOORAIR:MIXER,CORE_ZN ZN PSZ-AC-1 OA SYS OUTDOOR AIR MIXER,Outlet,1
 Non-Parent Node Connection,NODE 48,OUTDOORAIR:MIXER,CORE_ZN ZN PSZ-AC-1 OA SYS OUTDOOR AIR MIXER,Inlet,1
 Non-Parent Node Connection,NODE 49,OUTDOORAIR:MIXER,CORE_ZN ZN PSZ-AC-1 OA SYS OUTDOOR AIR MIXER,ReliefAir,1
 Non-Parent Node Connection,NODE 43,OUTDOORAIR:MIXER,CORE_ZN ZN PSZ-AC-1 OA SYS OUTDOOR AIR MIXER,Inlet,1
 Non-Parent Node Connection,NODE 74,OUTDOORAIR:MIXER,PERIMETER_ZN_1 ZN PSZ-AC-2 OA SYS OUTDOOR AIR MIXER,Outlet,1
 Non-Parent Node Connection,NODE 12,OUTDOORAIR:MIXER,PERIMETER_ZN_1 ZN PSZ-AC-2 OA SYS OUTDOOR AIR MIXER,Inlet,1
 Non-Parent Node Connection,NODE 13,OUTDOORAIR:MIXER,PERIMETER_ZN_1 ZN PSZ-AC-2 OA SYS OUTDOOR AIR MIXER,ReliefAir,1
 Non-Parent Node Connection,NODE 7,OUTDOORAIR:MIXER,PERIMETER_ZN_1 ZN PSZ-AC-2 OA SYS OUTDOOR AIR MIXER,Inlet,1
 Non-Parent Node Connection,NODE 75,OUTDOORAIR:MIXER,PERIMETER_ZN_2 ZN PSZ-AC-3 OA SYS OUTDOOR AIR MIXER,Outlet,1
 Non-Parent Node Connection,NODE 21,OUTDOORAIR:MIXER,PERIMETER_ZN_2 ZN PSZ-AC-3 OA SYS OUTDOOR AIR MIXER,Inlet,1
 Non-Parent Node Connection,NODE 22,OUTDOORAIR:MIXER,PERIMETER_ZN_2 ZN PSZ-AC-3 OA SYS OUTDOOR AIR MIXER,ReliefAir,1
 Non-Parent Node Connection,NODE 16,OUTDOORAIR:MIXER,PERIMETER_ZN_2 ZN PSZ-AC-3 OA SYS OUTDOOR AIR MIXER,Inlet,1
 Non-Parent Node Connection,NODE 76,OUTDOORAIR:MIXER,PERIMETER_ZN_3 ZN PSZ-AC-4 OA SYS OUTDOOR AIR MIXER,Outlet,1
 Non-Parent Node Connection,NODE 30,OUTDOORAIR:MIXER,PERIMETER_ZN_3 ZN PSZ-AC-4 OA SYS OUTDOOR AIR MIXER,Inlet,1
 Non-Parent Node Connection,NODE 31,OUTDOORAIR:MIXER,PERIMETER_ZN_3 ZN PSZ-AC-4 OA SYS OUTDOOR AIR MIXER,ReliefAir,1
 Non-Parent Node Connection,NODE 25,OUTDOORAIR:MIXER,PERIMETER_ZN_3 ZN PSZ-AC-4 OA SYS OUTDOOR AIR MIXER,Inlet,1
 Non-Parent Node Connection,NODE 77,OUTDOORAIR:MIXER,PERIMETER_ZN_4 ZN PSZ-AC-5 OA SYS OUTDOOR AIR MIXER,Outlet,1
 Non-Parent Node Connection,NODE 39,OUTDOORAIR:MIXER,PERIMETER_ZN_4 ZN PSZ-AC-5 OA SYS OUTDOOR AIR MIXER,Inlet,1
 Non-Parent Node Connection,NODE 40,OUTDOORAIR:MIXER,PERIMETER_ZN_4 ZN PSZ-AC-5 OA SYS OUTDOOR AIR MIXER,ReliefAir,1
 Non-Parent Node Connection,NODE 34,OUTDOORAIR:MIXER,PERIMETER_ZN_4 ZN PSZ-AC-5 OA SYS OUTDOOR AIR MIXER,Inlet,1
 Non-Parent Node Connection,NODE 73,CONTROLLER:OUTDOORAIR,CORE_ZN ZN PSZ-AC-1 OA SYS CONTROLLER,Sensor,1
 Non-Parent Node Connection,NODE 48,CONTROLLER:OUTDOORAIR,CORE_ZN ZN PSZ-AC-1 OA SYS CONTROLLER,Actuator,1
 Non-Parent Node Connection,NODE 49,CONTROLLER:OUTDOORAIR,CORE_ZN ZN PSZ-AC-1 OA SYS CONTROLLER,Actuator,1
 Non-Parent Node Connection,NODE 43,CONTROLLER:OUTDOORAIR,CORE_ZN ZN PSZ-AC-1 OA SYS CONTROLLER,Sensor,1
 Non-Parent Node Connection,NODE 74,CONTROLLER:OUTDOORAIR,PERIMETER_ZN_1 ZN PSZ-AC-2 OA SYS CONTROLLER,Sensor,1
 Non-Parent Node Connection,NODE 12,CONTROLLER:OUTDOORAIR,PERIMETER_ZN_1 ZN PSZ-AC-2 OA SYS CONTROLLER,Actuator,1
 Non-Parent Node Connection,NODE 13,CONTROLLER:OUTDOORAIR,PERIMETER_ZN_1 ZN PSZ-AC-2 OA SYS CONTROLLER,Actuator,1
 Non-Parent Node Connection,NODE 7,CONTROLLER:OUTDOORAIR,PERIMETER_ZN_1 ZN PSZ-AC-2 OA SYS CONTROLLER,Sensor,1
 Non-Parent Node Connection,NODE 75,CONTROLLER:OUTDOORAIR,PERIMETER_ZN_2 ZN PSZ-AC-3 OA SYS CONTROLLER,Sensor,1
 Non-Parent Node Connection,NODE 21,CONTROLLER:OUTDOORAIR,PERIMETER_ZN_2 ZN PSZ-AC-3 OA SYS CONTROLLER,Actuator,1
 Non-Parent Node Connection,NODE 22,CONTROLLER:OUTDOORAIR,PERIMETER_ZN_2 ZN PSZ-AC-3 OA SYS CONTROLLER,Actuator,1
 Non-Parent Node Connection,NODE 16,CONTROLLER:OUTDOORAIR,PERIMETER_ZN_2 ZN PSZ-AC-3 OA SYS CONTROLLER,Sensor,1
 Non-Parent Node Connection,NODE 76,CONTROLLER:OUTDOORAIR,PERIMETER_ZN_3 ZN PSZ-AC-4 OA SYS CONTROLLER,Sensor,1
 Non-Parent Node Connection,NODE 30,CONTROLLER:OUTDOORAIR,PERIMETER_ZN_3 ZN PSZ-AC-4 OA SYS CONTROLLER,Actuator,1
 Non-Parent Node Connection,NODE 31,CONTROLLER:OUTDOORAIR,PERIMETER_ZN_3 ZN PSZ-AC-4 OA SYS CONTROLLER,Actuator,1
 Non-Parent Node Connection,NODE 25,CONTROLLER:OUTDOORAIR,PERIMETER_ZN_3 ZN PSZ-AC-4 OA SYS CONTROLLER,Sensor,1
 Non-Parent Node Connection,NODE 77,CONTROLLER:OUTDOORAIR,PERIMETER_ZN_4 ZN PSZ-AC-5 OA SYS CONTROLLER,Sensor,1
 Non-Parent Node Connection,NODE 39,CONTROLLER:OUTDOORAIR,PERIMETER_ZN_4 ZN PSZ-AC-5 OA SYS CONTROLLER,Actuator,1
 Non-Parent Node Connection,NODE 40,CONTROLLER:OUTDOORAIR,PERIMETER_ZN_4 ZN PSZ-AC-5 OA SYS CONTROLLER,Actuator,1
 Non-Parent Node Connection,NODE 34,CONTROLLER:OUTDOORAIR,PERIMETER_ZN_4 ZN PSZ-AC-5 OA SYS CONTROLLER,Sensor,1
 Non-Parent Node Connection,NODE 73,COIL:HEATING:ELECTRIC,ELEC HTG COIL,Inlet,1
 Non-Parent Node Connection,NODE 44,COIL:HEATING:ELECTRIC,ELEC HTG COIL,Outlet,1
 Non-Parent Node Connection,NODE 44,COIL:HEATING:ELECTRIC,ELEC HTG COIL,Sensor,1
 Non-Parent Node Connection,NODE 74,COIL:HEATING:ELECTRIC,ELEC HTG COIL 1,Inlet,1
 Non-Parent Node Connection,NODE 8,COIL:HEATING:ELECTRIC,ELEC HTG COIL 1,Outlet,1
 Non-Parent Node Connection,NODE 8,COIL:HEATING:ELECTRIC,ELEC HTG COIL 1,Sensor,1
 Non-Parent Node Connection,NODE 75,COIL:HEATING:ELECTRIC,ELEC HTG COIL 2,Inlet,1
 Non-Parent Node Connection,NODE 17,COIL:HEATING:ELECTRIC,ELEC HTG COIL 2,Outlet,1
 Non-Parent Node Connection,NODE 17,COIL:HEATING:ELECTRIC,ELEC HTG COIL 2,Sensor,1
 Non-Parent Node Connection,NODE 76,COIL:HEATING:ELECTRIC,ELEC HTG COIL 3,Inlet,1
 Non-Parent Node Connection,NODE 26,COIL:HEATING:ELECTRIC,ELEC HTG COIL 3,Outlet,1
 Non-Parent Node Connection,NODE 26,COIL:HEATING:ELECTRIC,ELEC HTG COIL 3,Sensor,1
 Non-Parent Node Connection,NODE 77,COIL:HEATING:ELECTRIC,ELEC HTG COIL 4,Inlet,1
 Non-Parent Node Connection,NODE 35,COIL:HEATING:ELECTRIC,ELEC HTG COIL 4,Outlet,1
 Non-Parent Node Connection,NODE 35,COIL:HEATING:ELECTRIC,ELEC HTG COIL 4,Sensor,1
 Non-Parent Node Connection,NODE 52,PUMP:CONSTANTSPEED,SERVICE WATER LOOP PUMP,Inlet,1
 Non-Parent Node Connection,NODE 58,PUMP:CONSTANTSPEED,SERVICE WATER LOOP PUMP,Outlet,1
