Program Version,EnergyPlus, Version 8.9.0-eba93e8e1b, YMD=2019.08.13 16:41
! This file shows details about the branches, nodes, and other
! elements of the flow connections.
! This file is intended for use in "debugging" potential problems
! that may also be detected by the program, but may be more easily
! identified by "eye".
! This file is also intended to support software which draws a
! schematic diagram of the HVAC system.
! ===============================================================
! #Nodes,<Number of Unique Nodes>
 #Nodes,131
! <Node>,<NodeNumber>,<Node Name>,<Node Fluid Type>,<# Times Node Referenced After Definition>
 Node,1,NODE 21,Air,3
 Node,2,NODE 106,Air,3
 Node,3,NODE 108,Air,2
 Node,4,NODE 105,Air,3
 Node,5,NODE 107,Air,2
 Node,6,NODE 33,Air,3
 Node,7,NODE 102,Air,3
 Node,8,NODE 101,Air,3
 Node,9,NODE 46,Air,3
 Node,10,NODE 104,Air,3
 Node,11,NODE 103,Air,3
 Node,12,NODE 18,Air,10
 Node,13,NODE 19,Air,3
 Node,14,NODE 30,Air,10
 Node,15,NODE 31,Air,3
 Node,16,NODE 43,Air,10
 Node,17,NODE 44,Air,3
 Node,18,NODE 17,Air,4
 Node,19,NODE 26,Air,8
 Node,20,NODE 25,Air,6
 Node,21,NODE 99,Air,8
 Node,22,NODE 29,Air,4
 Node,23,NODE 38,Air,8
 Node,24,NODE 37,Air,6
 Node,25,NODE 89,Air,8
 Node,26,NODE 42,Air,4
 Node,27,NODE 51,Air,8
 Node,28,NODE 50,Air,6
 Node,29,NODE 97,Air,8
 Node,30,NODE 2,Water,2
 Node,31,NODE 10,Water,1
 Node,32,NODE 5,Water,1
 Node,33,NODE 11,Water,1
 Node,34,NODE 12,Water,1
 Node,35,NODE 13,Water,1
 Node,36,NODE 14,Water,1
 Node,37,NODE 15,Water,1
 Node,38,NODE 16,Water,1
 Node,39,NODE 3,Water,4
 Node,40,NODE 6,Water,2
 Node,41,HOT WATER LOOP DEMAND INLET PIPE NODE,Water,1
 Node,42,NODE 9,Water,1
 Node,43,NODE 28,Water,1
 Node,44,NODE 40,Water,1
 Node,45,NODE 41,Water,1
 Node,46,NODE 53,Water,1
 Node,47,NODE 54,Water,1
 Node,48,HOT WATER LOOP DEMAND BYPASS PIPE INLET NODE,Water,1
 Node,49,HOT WATER LOOP DEMAND BYPASS PIPE OUTLET NODE,Water,1
 Node,50,HOT WATER LOOP DEMAND OUTLET PIPE NODE,Water,1
 Node,51,NODE 8,Water,2
 Node,52,NODE 55,Water,2
 Node,53,NODE 61,Water,1
 Node,54,NODE 57,Water,2
 Node,55,NODE 62,Water,2
 Node,56,NODE 63,Water,1
 Node,57,NODE 64,Water,1
 Node,58,NODE 66,Water,1
 Node,59,NODE 56,Water,4
 Node,60,NODE 58,Water,2
 Node,61,NODE 67,Water,1
 Node,62,NODE 60,Water,1
 Node,63,NODE 65,Water,1
 Node,64,NODE 69,Water,1
 Node,65,NODE 70,Water,1
 Node,66,NODE 71,Water,1
 Node,67,NODE 72,Water,1
 Node,68,NODE 73,Water,1
 Node,69,NODE 74,Water,1
 Node,70,NODE 75,Water,1
 Node,71,NODE 76,Water,1
 Node,72,NODE 77,Water,1
 Node,73,NODE 78,Water,1
 Node,74,NODE 79,Water,1
 Node,75,NODE 80,Water,1
 Node,76,NODE 81,Water,1
 Node,77,NODE 82,Water,1
 Node,78,NODE 83,Water,1
 Node,79,NODE 84,Water,1
 Node,80,NODE 85,Water,1
 Node,81,NODE 86,Water,1
 Node,82,NODE 87,Water,1
 Node,83,NODE 88,Water,1
 Node,84,MAIN SERVICE WATER LOOP DEMAND BYPASS PIPE INLET NODE,Water,1
 Node,85,MAIN SERVICE WATER LOOP DEMAND BYPASS PIPE OUTLET NODE,Water,1
 Node,86,NODE 68,Water,1
 Node,87,NODE 59,Water,2
 Node,88,NODE 1,Air,0
 Node,89,NODE 27,Air,1
 Node,90,NODE 4,Air,0
 Node,91,NODE 39,Air,1
 Node,92,NODE 7,Air,0
 Node,93,NODE 52,Air,1
 Node,94,NODE 20,Air,2
 Node,95,NODE 32,Air,2
 Node,96,NODE 45,Air,2
 Node,97,13GAL NATURALGAS WATER HEATER - 9KBTU/HR 0.82 THERM EFF ASHPWH TANK OUTLET - CONDENSER INLET,Water,2
 Node,98,13GAL NATURALGAS WATER HEATER - 9KBTU/HR 0.82 THERM EFF ASHPWH CONDENSER OUTLET - TANK INLET,Water,2
 Node,99,13GAL NATURALGAS WATER HEATER - 9KBTU/HR 0.82 THERM EFF ASHPWH MIXER OUTLET - EVAP INLET,Air,1
 Node,100,13GAL NATURALGAS WATER HEATER - 9KBTU/HR 0.82 THERM EFF ASHPWH EVAP OUTLET - FAN INLET,Air,1
 Node,101,ALL_ST=SALES AREA_FL=BUILDING STORY 1_SCH=C ERV DOAS OA NODE,Air,2
 Node,102,ALL_ST=SALES AREA_FL=BUILDING STORY 1_SCH=C 1 ERV DOAS OA NODE,Air,2
 Node,103,ALL_ST=SALES AREA_FL=BUILDING STORY 1_SCH=C 2 ERV DOAS OA NODE,Air,2
 Node,104,NODE 22,Air,3
 Node,105,NODE 34,Air,3
 Node,106,NODE 47,Air,3
 Node,107,MODEL OUTDOOR AIR NODE,Air,0
 Node,108,13GAL NATURALGAS WATER HEATER - 9KBTU/HR 0.82 THERM EFF ASHPWH FAN OUTLET - SPLITTER INLET,Air,1
 Node,109,ALL_ST=SALES AREA_FL=BUILDING STORY 1_SCH=C ERV DOAS SUPPLY FAN INLET NODE,Air,1
 Node,110,ALL_ST=SALES AREA_FL=BUILDING STORY 1_SCH=C ERV DOAS EXHAUST FAN INLET NODE,Air,1
 Node,111,ALL_ST=SALES AREA_FL=BUILDING STORY 1_SCH=C ERV DOAS EXHAUST FAN OUTLET NODE,Air,1
 Node,112,ALL_ST=SALES AREA_FL=BUILDING STORY 1_SCH=C 1 ERV DOAS SUPPLY FAN INLET NODE,Air,1
 Node,113,ALL_ST=SALES AREA_FL=BUILDING STORY 1_SCH=C 1 ERV DOAS EXHAUST FAN INLET NODE,Air,1
 Node,114,ALL_ST=SALES AREA_FL=BUILDING STORY 1_SCH=C 1 ERV DOAS EXHAUST FAN OUTLET NODE,Air,1
 Node,115,ALL_ST=SALES AREA_FL=BUILDING STORY 1_SCH=C 2 ERV DOAS SUPPLY FAN INLET NODE,Air,1
 Node,116,ALL_ST=SALES AREA_FL=BUILDING STORY 1_SCH=C 2 ERV DOAS EXHAUST FAN INLET NODE,Air,1
 Node,117,ALL_ST=SALES AREA_FL=BUILDING STORY 1_SCH=C 2 ERV DOAS EXHAUST FAN OUTLET NODE,Air,1
 Node,118,13GAL NATURALGAS WATER HEATER - 9KBTU/HR 0.82 THERM EFF ASHPWH OUTDOOR AIR,Air,1
 Node,119,13GAL NATURALGAS WATER HEATER - 9KBTU/HR 0.82 THERM EFF ASHPWH EXHAUST AIR,Air,0
 Node,120,NODE 90,Air,2
 Node,121,NODE 92,Air,2
 Node,122,NODE 94,Air,2
 Node,123,NODE 100,Air,1
 Node,124,NODE 96,Air,1
 Node,125,NODE 98,Air,1
 Node,126,NODE 91,Air,2
 Node,127,NODE 23,Air,0
 Node,128,NODE 93,Air,2
 Node,129,NODE 35,Air,0
 Node,130,NODE 95,Air,2
 Node,131,NODE 48,Air,0
! ===============================================================
! Suspicious nodes have 0 references.  It is normal for some nodes, however.
! Listing nodes with 0 references (culled from previous list):
! <Suspicious Node>,<NodeNumber>,<Node Name>,<Node Fluid Type>,<# Times Node Referenced After Definition>
 Suspicious Node,88,NODE 1,Air,0
 Suspicious Node,90,NODE 4,Air,0
 Suspicious Node,92,NODE 7,Air,0
 Suspicious Node,107,MODEL OUTDOOR AIR NODE,Air,0
 Suspicious Node,119,13GAL NATURALGAS WATER HEATER - 9KBTU/HR 0.82 THERM EFF ASHPWH EXHAUST AIR,Air,0
 Suspicious Node,127,NODE 23,Air,0
 Suspicious Node,129,NODE 35,Air,0
 Suspicious Node,131,NODE 48,Air,0
! ===============================================================
! <#Branch Lists>,<Number of Branch Lists>
 #Branch Lists,7
! <Branch List>,<Branch List Count>,<Branch List Name>,<Loop Name>,<Loop Type>,<Number of Branches>
! <Branch>,<Branch Count>,<Branch Name>,<Loop Name>,<Loop Type>,<Branch Inlet Node Name>,<Branch Outlet Node Name>
 Branch List,1,SYS_3_PSZ ALL_ST=SALES AREA_FL=BUILDING STORY 1_SCH=C SUPPLY BRANCHES,SYS_3_PSZ ALL_ST=SALES AREA_FL=BUILDING STORY 1_SCH=C,Air,1
   Branch,1,SYS_3_PSZ ALL_ST=SALES AREA_FL=BUILDING STORY 1_SCH=C MAIN BRANCH,SYS_3_PSZ ALL_ST=SALES AREA_FL=BUILDING STORY 1_SCH=C,Air,NODE 17,NODE 18
 Branch List,2,SYS_3_PSZ ALL_ST=SALES AREA_FL=BUILDING STORY 1_SCH=C 1 SUPPLY BRANCHES,SYS_3_PSZ ALL_ST=SALES AREA_FL=BUILDING STORY 1_SCH=C 1,Air,1
   Branch,1,SYS_3_PSZ ALL_ST=SALES AREA_FL=BUILDING STORY 1_SCH=C 1 MAIN BRANCH,SYS_3_PSZ ALL_ST=SALES AREA_FL=BUILDING STORY 1_SCH=C 1,Air,NODE 29,NODE 30
 Branch List,3,SYS_3_PSZ ALL_ST=SALES AREA_FL=BUILDING STORY 1_SCH=C 2 SUPPLY BRANCHES,SYS_3_PSZ ALL_ST=SALES AREA_FL=BUILDING STORY 1_SCH=C 2,Air,1
   Branch,1,SYS_3_PSZ ALL_ST=SALES AREA_FL=BUILDING STORY 1_SCH=C 2 MAIN BRANCH,SYS_3_PSZ ALL_ST=SALES AREA_FL=BUILDING STORY 1_SCH=C 2,Air,NODE 42,NODE 43
 Branch List,4,HOT WATER LOOP SUPPLY BRANCHES,HOT WATER LOOP,Plant Supply,5
   Branch,1,HOT WATER LOOP SUPPLY INLET BRANCH,HOT WATER LOOP,Plant Supply,NODE 2,NODE 10
   Branch,2,HOT WATER LOOP SUPPLY BRANCH 1,HOT WATER LOOP,Plant Supply,NODE 5,NODE 11
   Branch,3,HOT WATER LOOP SUPPLY BRANCH 2,HOT WATER LOOP,Plant Supply,NODE 12,NODE 13
   Branch,4,HOT WATER LOOP SUPPLY BRANCH 3,HOT WATER LOOP,Plant Supply,NODE 14,NODE 15
   Branch,5,HOT WATER LOOP SUPPLY OUTLET BRANCH,HOT WATER LOOP,Plant Supply,NODE 16,NODE 3
 Branch List,5,HOT WATER LOOP DEMAND BRANCHES,HOT WATER LOOP,Plant Demand,6
   Branch,1,HOT WATER LOOP DEMAND INLET BRANCH,HOT WATER LOOP,Plant Demand,NODE 6,HOT WATER LOOP DEMAND INLET PIPE NODE
   Branch,2,HOT WATER LOOP DEMAND BRANCH 1,HOT WATER LOOP,Plant Demand,NODE 9,NODE 28
   Branch,3,HOT WATER LOOP DEMAND BRANCH 2,HOT WATER LOOP,Plant Demand,NODE 40,NODE 41
   Branch,4,HOT WATER LOOP DEMAND BRANCH 3,HOT WATER LOOP,Plant Demand,NODE 53,NODE 54
   Branch,5,HOT WATER LOOP DEMAND BYPASS BRANCH,HOT WATER LOOP,Plant Demand,HOT WATER LOOP DEMAND BYPASS PIPE INLET NODE,HOT WATER LOOP DEMAND BYPASS PIPE OUTLET NODE
   Branch,6,HOT WATER LOOP DEMAND OUTLET BRANCH,HOT WATER LOOP,Plant Demand,HOT WATER LOOP DEMAND OUTLET PIPE NODE,NODE 8
 Branch List,6,MAIN SERVICE WATER LOOP SUPPLY BRANCHES,MAIN SERVICE WATER LOOP,Plant Supply,4
   Branch,1,MAIN SERVICE WATER LOOP SUPPLY INLET BRANCH,MAIN SERVICE WATER LOOP,Plant Supply,NODE 55,NODE 61
   Branch,2,MAIN SERVICE WATER LOOP SUPPLY BRANCH 1,MAIN SERVICE WATER LOOP,Plant Supply,NODE 57,NODE 62
   Branch,3,MAIN SERVICE WATER LOOP SUPPLY BRANCH 2,MAIN SERVICE WATER LOOP,Plant Supply,NODE 63,NODE 64
   Branch,4,MAIN SERVICE WATER LOOP SUPPLY OUTLET BRANCH,MAIN SERVICE WATER LOOP,Plant Supply,NODE 66,NODE 56
 Branch List,7,MAIN SERVICE WATER LOOP DEMAND BRANCHES,MAIN SERVICE WATER LOOP,Plant Demand,14
   Branch,1,MAIN SERVICE WATER LOOP DEMAND INLET BRANCH,MAIN SERVICE WATER LOOP,Plant Demand,NODE 58,NODE 67
   Branch,2,MAIN SERVICE WATER LOOP DEMAND BRANCH 1,MAIN SERVICE WATER LOOP,Plant Demand,NODE 60,NODE 65
   Branch,3,MAIN SERVICE WATER LOOP DEMAND BRANCH 2,MAIN SERVICE WATER LOOP,Plant Demand,NODE 69,NODE 70
   Branch,4,MAIN SERVICE WATER LOOP DEMAND BRANCH 3,MAIN SERVICE WATER LOOP,Plant Demand,NODE 71,NODE 72
   Branch,5,MAIN SERVICE WATER LOOP DEMAND BRANCH 4,MAIN SERVICE WATER LOOP,Plant Demand,NODE 73,NODE 74
   Branch,6,MAIN SERVICE WATER LOOP DEMAND BRANCH 5,MAIN SERVICE WATER LOOP,Plant Demand,NODE 75,NODE 76
   Branch,7,MAIN SERVICE WATER LOOP DEMAND BRANCH 6,MAIN SERVICE WATER LOOP,Plant Demand,NODE 77,NODE 78
   Branch,8,MAIN SERVICE WATER LOOP DEMAND BRANCH 7,MAIN SERVICE WATER LOOP,Plant Demand,NODE 79,NODE 80
   Branch,9,MAIN SERVICE WATER LOOP DEMAND BRANCH 8,MAIN SERVICE WATER LOOP,Plant Demand,NODE 81,NODE 82
   Branch,10,MAIN SERVICE WATER LOOP DEMAND BRANCH 9,MAIN SERVICE WATER LOOP,Plant Demand,NODE 83,NODE 84
   Branch,11,MAIN SERVICE WATER LOOP DEMAND BRANCH 10,MAIN SERVICE WATER LOOP,Plant Demand,NODE 85,NODE 86
   Branch,12,MAIN SERVICE WATER LOOP DEMAND BRANCH 11,MAIN SERVICE WATER LOOP,Plant Demand,NODE 87,NODE 88
   Branch,13,MAIN SERVICE WATER LOOP DEMAND BYPASS BRANCH,MAIN SERVICE WATER LOOP,Plant Demand,MAIN SERVICE WATER LOOP DEMAND BYPASS PIPE INLET NODE,MAIN SERVICE WATER LOOP DEMAND BYPASS PIPE OUTLET NODE
   Branch,14,MAIN SERVICE WATER LOOP DEMAND OUTLET BRANCH,MAIN SERVICE WATER LOOP,Plant Demand,NODE 68,NODE 59
! ===============================================================
! <#Supply Air Paths>,<Number of Supply Air Paths>
 #Supply Air Paths,3
! <Supply Air Path>,<Supply Air Path Count>,<Supply Air Path Name>,<AirLoopHVAC Name>
! <#Components on Supply Air Path>,<Number of Components>
! <Supply Air Path Component>,<Component Count>,<Component Type>,<Component Name>,<AirLoopHVAC Name>
! <#Outlet Nodes on Supply Air Path Component>,<Number of Nodes>
! <Supply Air Path Component Nodes>,<Node Count>,<Component Type>,<Component Name>,<Inlet Node Name>,<Outlet Node Name>,<AirLoopHVAC Name>
 Supply Air Path,1,SYS_3_PSZ ALL_ST=SALES AREA_FL=BUILDING STORY 1_SCH=C NODE 19 SUPPLY PATH,SYS_3_PSZ ALL_ST=SALES AREA_FL=BUILDING STORY 1_SCH=C
   #Components on Supply Air Path,1
   Supply Air Path Component,1,AIRLOOPHVAC:ZONESPLITTER,AIR LOOP HVAC ZONE SPLITTER 1,SYS_3_PSZ ALL_ST=SALES AREA_FL=BUILDING STORY 1_SCH=C
     #Outlet Nodes on Supply Air Path Component,1
     Supply Air Path Component Nodes,1,AIRLOOPHVAC:ZONESPLITTER,AIR LOOP HVAC ZONE SPLITTER 1,NODE 19,NODE 100,SYS_3_PSZ ALL_ST=SALES AREA_FL=BUILDING STORY 1_SCH=C
! <#Nodes on Supply Air Path>,<Number of Nodes>
! <Supply Air Path Node>,<Node Type>,<Node Count>,<Node Name>,<AirLoopHVAC Name>
#Nodes on Supply Air Path,2
   Supply Air Path Node,Inlet Node,1,NODE 19,SYS_3_PSZ ALL_ST=SALES AREA_FL=BUILDING STORY 1_SCH=C
   Supply Air Path Node,Outlet Node,2,NODE 100,SYS_3_PSZ ALL_ST=SALES AREA_FL=BUILDING STORY 1_SCH=C
 Supply Air Path,2,SYS_3_PSZ ALL_ST=SALES AREA_FL=BUILDING STORY 1_SCH=C 1 NODE 31 SUPPLY PATH,SYS_3_PSZ ALL_ST=SALES AREA_FL=BUILDING STORY 1_SCH=C 1
   #Components on Supply Air Path,1
   Supply Air Path Component,1,AIRLOOPHVAC:ZONESPLITTER,AIR LOOP HVAC ZONE SPLITTER 2,SYS_3_PSZ ALL_ST=SALES AREA_FL=BUILDING STORY 1_SCH=C 1
     #Outlet Nodes on Supply Air Path Component,1
     Supply Air Path Component Nodes,1,AIRLOOPHVAC:ZONESPLITTER,AIR LOOP HVAC ZONE SPLITTER 2,NODE 31,NODE 96,SYS_3_PSZ ALL_ST=SALES AREA_FL=BUILDING STORY 1_SCH=C 1
! <#Nodes on Supply Air Path>,<Number of Nodes>
! <Supply Air Path Node>,<Node Type>,<Node Count>,<Node Name>,<AirLoopHVAC Name>
#Nodes on Supply Air Path,2
   Supply Air Path Node,Inlet Node,1,NODE 31,SYS_3_PSZ ALL_ST=SALES AREA_FL=BUILDING STORY 1_SCH=C 1
   Supply Air Path Node,Outlet Node,2,NODE 96,SYS_3_PSZ ALL_ST=SALES AREA_FL=BUILDING STORY 1_SCH=C 1
 Supply Air Path,3,SYS_3_PSZ ALL_ST=SALES AREA_FL=BUILDING STORY 1_SCH=C 2 NODE 44 SUPPLY PATH,SYS_3_PSZ ALL_ST=SALES AREA_FL=BUILDING STORY 1_SCH=C 2
   #Components on Supply Air Path,1
   Supply Air Path Component,1,AIRLOOPHVAC:ZONESPLITTER,AIR LOOP HVAC ZONE SPLITTER 3,SYS_3_PSZ ALL_ST=SALES AREA_FL=BUILDING STORY 1_SCH=C 2
     #Outlet Nodes on Supply Air Path Component,1
     Supply Air Path Component Nodes,1,AIRLOOPHVAC:ZONESPLITTER,AIR LOOP HVAC ZONE SPLITTER 3,NODE 44,NODE 98,SYS_3_PSZ ALL_ST=SALES AREA_FL=BUILDING STORY 1_SCH=C 2
! <#Nodes on Supply Air Path>,<Number of Nodes>
! <Supply Air Path Node>,<Node Type>,<Node Count>,<Node Name>,<AirLoopHVAC Name>
#Nodes on Supply Air Path,2
   Supply Air Path Node,Inlet Node,1,NODE 44,SYS_3_PSZ ALL_ST=SALES AREA_FL=BUILDING STORY 1_SCH=C 2
   Supply Air Path Node,Outlet Node,2,NODE 98,SYS_3_PSZ ALL_ST=SALES AREA_FL=BUILDING STORY 1_SCH=C 2
! ===============================================================
! <#Return Air Paths>,<Number of Return Air Paths>
 #Return Air Paths,3
! <Return Air Path>,<Return Air Path Count>,<Return Air Path Name>,<AirLoopHVAC Name>
! <#Components on Return Air Path>,<Number of Components>
! <Return Air Path Component>,<Component Count>,<Component Type>,<Component Name>,<AirLoopHVAC Name>
! <#Inlet Nodes on Return Air Path Component>,<Number of Nodes>
! <Return Air Path Component Nodes>,<Node Count>,<Component Type>,<Component Name>,<Inlet Node Name>,<Outlet Node Name>,<AirLoopHVAC Name>
 Return Air Path,1,SYS_3_PSZ ALL_ST=SALES AREA_FL=BUILDING STORY 1_SCH=C RETURN PATH,SYS_3_PSZ ALL_ST=SALES AREA_FL=BUILDING STORY 1_SCH=C
   #Components on Return Air Path,1
   Return Air Path Component,1,AIRLOOPHVAC:ZONEMIXER,AIR LOOP HVAC ZONE MIXER 1,SYS_3_PSZ ALL_ST=SALES AREA_FL=BUILDING STORY 1_SCH=C
     #Inlet Nodes on Return Air Path Component,1
     Return Air Path Component Nodes,1,AIRLOOPHVAC:ZONEMIXER,AIR LOOP HVAC ZONE MIXER 1,NODE 27,NODE 20,SYS_3_PSZ ALL_ST=SALES AREA_FL=BUILDING STORY 1_SCH=C
! <#Nodes on Return Air Path>,<Number of Nodes>
! <Return Air Path Node>,<Node Type>,<Node Count>,<Node Name>,<AirLoopHVAC Name>
   #Nodes on Return Air Path,2
   Return Air Path Node,Outlet Node,1,NODE 20,SYS_3_PSZ ALL_ST=SALES AREA_FL=BUILDING STORY 1_SCH=C
   Return Air Path Node,Inlet Node,2,NODE 27,SYS_3_PSZ ALL_ST=SALES AREA_FL=BUILDING STORY 1_SCH=C
 Return Air Path,2,SYS_3_PSZ ALL_ST=SALES AREA_FL=BUILDING STORY 1_SCH=C 1 RETURN PATH,SYS_3_PSZ ALL_ST=SALES AREA_FL=BUILDING STORY 1_SCH=C 1
   #Components on Return Air Path,1
   Return Air Path Component,1,AIRLOOPHVAC:ZONEMIXER,AIR LOOP HVAC ZONE MIXER 2,SYS_3_PSZ ALL_ST=SALES AREA_FL=BUILDING STORY 1_SCH=C 1
     #Inlet Nodes on Return Air Path Component,1
     Return Air Path Component Nodes,1,AIRLOOPHVAC:ZONEMIXER,AIR LOOP HVAC ZONE MIXER 2,NODE 39,NODE 32,SYS_3_PSZ ALL_ST=SALES AREA_FL=BUILDING STORY 1_SCH=C 1
! <#Nodes on Return Air Path>,<Number of Nodes>
! <Return Air Path Node>,<Node Type>,<Node Count>,<Node Name>,<AirLoopHVAC Name>
   #Nodes on Return Air Path,2
   Return Air Path Node,Outlet Node,1,NODE 32,SYS_3_PSZ ALL_ST=SALES AREA_FL=BUILDING STORY 1_SCH=C 1
   Return Air Path Node,Inlet Node,2,NODE 39,SYS_3_PSZ ALL_ST=SALES AREA_FL=BUILDING STORY 1_SCH=C 1
 Return Air Path,3,SYS_3_PSZ ALL_ST=SALES AREA_FL=BUILDING STORY 1_SCH=C 2 RETURN PATH,SYS_3_PSZ ALL_ST=SALES AREA_FL=BUILDING STORY 1_SCH=C 2
   #Components on Return Air Path,1
   Return Air Path Component,1,AIRLOOPHVAC:ZONEMIXER,AIR LOOP HVAC ZONE MIXER 3,SYS_3_PSZ ALL_ST=SALES AREA_FL=BUILDING STORY 1_SCH=C 2
     #Inlet Nodes on Return Air Path Component,1
     Return Air Path Component Nodes,1,AIRLOOPHVAC:ZONEMIXER,AIR LOOP HVAC ZONE MIXER 3,NODE 52,NODE 45,SYS_3_PSZ ALL_ST=SALES AREA_FL=BUILDING STORY 1_SCH=C 2
! <#Nodes on Return Air Path>,<Number of Nodes>
! <Return Air Path Node>,<Node Type>,<Node Count>,<Node Name>,<AirLoopHVAC Name>
   #Nodes on Return Air Path,2
   Return Air Path Node,Outlet Node,1,NODE 45,SYS_3_PSZ ALL_ST=SALES AREA_FL=BUILDING STORY 1_SCH=C 2
   Return Air Path Node,Inlet Node,2,NODE 52,SYS_3_PSZ ALL_ST=SALES AREA_FL=BUILDING STORY 1_SCH=C 2
! ===============================================================
! #Outdoor Air Nodes,<Number of Outdoor Air Nodes>
 #Outdoor Air Nodes,8
! <Outdoor Air Node>,<NodeNumber>,<Node Name>
 Outdoor Air Node,101,ALL_ST=SALES AREA_FL=BUILDING STORY 1_SCH=C ERV DOAS OA NODE
 Outdoor Air Node,102,ALL_ST=SALES AREA_FL=BUILDING STORY 1_SCH=C 1 ERV DOAS OA NODE
 Outdoor Air Node,103,ALL_ST=SALES AREA_FL=BUILDING STORY 1_SCH=C 2 ERV DOAS OA NODE
 Outdoor Air Node,104,NODE 22
 Outdoor Air Node,105,NODE 34
 Outdoor Air Node,106,NODE 47
 Outdoor Air Node,107,MODEL OUTDOOR AIR NODE
 Outdoor Air Node,118,13GAL NATURALGAS WATER HEATER - 9KBTU/HR 0.82 THERM EFF ASHPWH OUTDOOR AIR
! ===============================================================
! <#Component Sets>,<Number of Component Sets>
 #Component Sets,66
! <Component Set>,<Component Set Count>,<Parent Object Type>,<Parent Object Name>,<Component Type>,<Component Name>,<Inlet Node ID>,<Outlet Node ID>,<Description>
 Component Set,1,BRANCH,SYS_3_PSZ ALL_ST=SALES AREA_FL=BUILDING STORY 1_SCH=C MAIN BRANCH,AIRLOOPHVAC:OUTDOORAIRSYSTEM,AIR LOOP HVAC OUTDOOR AIR SYSTEM 1,NODE 17,NODE 26,Air Nodes
 Component Set,2,BRANCH,SYS_3_PSZ ALL_ST=SALES AREA_FL=BUILDING STORY 1_SCH=C MAIN BRANCH,COILSYSTEM:COOLING:DX,COIL COOLING DX SINGLE SPEED 1 462KBTU/HR 8.21EER COILSYSTEM,NODE 26,NODE 25,Air Nodes
 Component Set,3,BRANCH,SYS_3_PSZ ALL_ST=SALES AREA_FL=BUILDING STORY 1_SCH=C MAIN BRANCH,COIL:HEATING:FUEL,COIL HEATING GAS 1,NODE 25,NODE 99,Air Nodes
 Component Set,4,BRANCH,SYS_3_PSZ ALL_ST=SALES AREA_FL=BUILDING STORY 1_SCH=C MAIN BRANCH,FAN:VARIABLEVOLUME,FAN VARIABLE VOLUME 3,NODE 99,NODE 18,Air Nodes
 Component Set,5,BRANCH,SYS_3_PSZ ALL_ST=SALES AREA_FL=BUILDING STORY 1_SCH=C 1 MAIN BRANCH,AIRLOOPHVAC:OUTDOORAIRSYSTEM,AIR LOOP HVAC OUTDOOR AIR SYSTEM 2,NODE 29,NODE 38,Air Nodes
 Component Set,6,BRANCH,SYS_3_PSZ ALL_ST=SALES AREA_FL=BUILDING STORY 1_SCH=C 1 MAIN BRANCH,COILSYSTEM:COOLING:DX,COIL COOLING DX SINGLE SPEED 2 91KBTU/HR 9.26EER COILSYSTEM,NODE 38,NODE 37,Air Nodes
 Component Set,7,BRANCH,SYS_3_PSZ ALL_ST=SALES AREA_FL=BUILDING STORY 1_SCH=C 1 MAIN BRANCH,COIL:HEATING:FUEL,COIL HEATING GAS 2,NODE 37,NODE 89,Air Nodes
 Component Set,8,BRANCH,SYS_3_PSZ ALL_ST=SALES AREA_FL=BUILDING STORY 1_SCH=C 1 MAIN BRANCH,FAN:VARIABLEVOLUME,FAN VARIABLE VOLUME 1,NODE 89,NODE 30,Air Nodes
 Component Set,9,BRANCH,SYS_3_PSZ ALL_ST=SALES AREA_FL=BUILDING STORY 1_SCH=C 2 MAIN BRANCH,AIRLOOPHVAC:OUTDOORAIRSYSTEM,AIR LOOP HVAC OUTDOOR AIR SYSTEM 3,NODE 42,NODE 51,Air Nodes
 Component Set,10,BRANCH,SYS_3_PSZ ALL_ST=SALES AREA_FL=BUILDING STORY 1_SCH=C 2 MAIN BRANCH,COILSYSTEM:COOLING:DX,COIL COOLING DX SINGLE SPEED 3 147KBTU/HR 9.08EER COILSYSTEM,NODE 51,NODE 50,Air Nodes
 Component Set,11,BRANCH,SYS_3_PSZ ALL_ST=SALES AREA_FL=BUILDING STORY 1_SCH=C 2 MAIN BRANCH,COIL:HEATING:FUEL,COIL HEATING GAS 3,NODE 50,NODE 97,Air Nodes
 Component Set,12,BRANCH,SYS_3_PSZ ALL_ST=SALES AREA_FL=BUILDING STORY 1_SCH=C 2 MAIN BRANCH,FAN:VARIABLEVOLUME,FAN VARIABLE VOLUME 2,NODE 97,NODE 43,Air Nodes
 Component Set,13,BRANCH,HOT WATER LOOP SUPPLY INLET BRANCH,PUMP:VARIABLESPEED,PUMP VARIABLE SPEED 1,NODE 2,NODE 10,Water Nodes
 Component Set,14,BRANCH,HOT WATER LOOP SUPPLY BRANCH 1,BOILER:HOTWATER,PRIMARY BOILER 355KBTU/HR 0.83 THERMAL EFF,NODE 5,NODE 11,Hot Water Nodes
 Component Set,15,BRANCH,HOT WATER LOOP SUPPLY BRANCH 2,BOILER:HOTWATER,SECONDARY BOILER 0KBTU/HR 0.85 AFUE,NODE 12,NODE 13,Hot Water Nodes
 Component Set,16,BRANCH,HOT WATER LOOP SUPPLY BRANCH 3,PIPE:ADIABATIC,PIPE ADIABATIC 1,NODE 14,NODE 15,Pipe Nodes
 Component Set,17,BRANCH,HOT WATER LOOP SUPPLY OUTLET BRANCH,PIPE:ADIABATIC,PIPE ADIABATIC 2,NODE 16,NODE 3,Pipe Nodes
 Component Set,18,BRANCH,HOT WATER LOOP DEMAND INLET BRANCH,PIPE:ADIABATIC,HOT WATER LOOP DEMAND INLET PIPE,NODE 6,HOT WATER LOOP DEMAND INLET PIPE NODE,Pipe Nodes
 Component Set,19,BRANCH,HOT WATER LOOP DEMAND BRANCH 1,ZONEHVAC:BASEBOARD:CONVECTIVE:WATER,ZONE HVAC BASEBOARD CONVECTIVE WATER 1,NODE 9,NODE 28,Hot Water Nodes
 Component Set,20,BRANCH,HOT WATER LOOP DEMAND BRANCH 2,ZONEHVAC:BASEBOARD:CONVECTIVE:WATER,ZONE HVAC BASEBOARD CONVECTIVE WATER 2,NODE 40,NODE 41,Hot Water Nodes
 Component Set,21,BRANCH,HOT WATER LOOP DEMAND BRANCH 3,ZONEHVAC:BASEBOARD:CONVECTIVE:WATER,ZONE HVAC BASEBOARD CONVECTIVE WATER 3,NODE 53,NODE 54,Hot Water Nodes
 Component Set,22,BRANCH,HOT WATER LOOP DEMAND BYPASS BRANCH,PIPE:ADIABATIC,HOT WATER LOOP DEMAND BYPASS PIPE,HOT WATER LOOP DEMAND BYPASS PIPE INLET NODE,HOT WATER LOOP DEMAND BYPASS PIPE OUTLET NODE,Pipe Nodes
 Component Set,23,BRANCH,HOT WATER LOOP DEMAND OUTLET BRANCH,PIPE:ADIABATIC,HOT WATER LOOP DEMAND OUTLET PIPE,HOT WATER LOOP DEMAND OUTLET PIPE NODE,NODE 8,Pipe Nodes
 Component Set,24,BRANCH,MAIN SERVICE WATER LOOP SUPPLY INLET BRANCH,PUMP:CONSTANTSPEED,SERVICE WATER LOOP PUMP,NODE 55,NODE 61,Water Nodes
 Component Set,25,BRANCH,MAIN SERVICE WATER LOOP SUPPLY BRANCH 1,WATERHEATER:HEATPUMP:PUMPEDCONDENSER,13GAL NATURALGAS WATER HEATER - 9KBTU/HR 0.82 THERM EFF ASHPWH,NODE 57,NODE 62,Water Nodes
 Component Set,26,BRANCH,MAIN SERVICE WATER LOOP SUPPLY BRANCH 2,PIPE:ADIABATIC,PIPE ADIABATIC 3,NODE 63,NODE 64,Pipe Nodes
 Component Set,27,BRANCH,MAIN SERVICE WATER LOOP SUPPLY OUTLET BRANCH,PIPE:ADIABATIC,PIPE ADIABATIC 5,NODE 66,NODE 56,Pipe Nodes
 Component Set,28,BRANCH,MAIN SERVICE WATER LOOP DEMAND INLET BRANCH,PIPE:ADIABATIC,PIPE ADIABATIC 6,NODE 58,NODE 67,Pipe Nodes
 Component Set,29,BRANCH,MAIN SERVICE WATER LOOP DEMAND BRANCH 1,PIPE:ADIABATIC,PIPE ADIABATIC 4,NODE 60,NODE 65,Pipe Nodes
 Component Set,30,BRANCH,MAIN SERVICE WATER LOOP DEMAND BRANCH 2,WATERUSE:CONNECTIONS,WATER USE CONNECTIONS 1,NODE 69,NODE 70,DHW Nodes
 Component Set,31,BRANCH,MAIN SERVICE WATER LOOP DEMAND BRANCH 3,WATERUSE:CONNECTIONS,WATER USE CONNECTIONS 2,NODE 71,NODE 72,DHW Nodes
 Component Set,32,BRANCH,MAIN SERVICE WATER LOOP DEMAND BRANCH 4,WATERUSE:CONNECTIONS,WATER USE CONNECTIONS 3,NODE 73,NODE 74,DHW Nodes
 Component Set,33,BRANCH,MAIN SERVICE WATER LOOP DEMAND BRANCH 5,WATERUSE:CONNECTIONS,WATER USE CONNECTIONS 4,NODE 75,NODE 76,DHW Nodes
 Component Set,34,BRANCH,MAIN SERVICE WATER LOOP DEMAND BRANCH 6,WATERUSE:CONNECTIONS,WATER USE CONNECTIONS 5,NODE 77,NODE 78,DHW Nodes
 Component Set,35,BRANCH,MAIN SERVICE WATER LOOP DEMAND BRANCH 7,WATERUSE:CONNECTIONS,WATER USE CONNECTIONS 6,NODE 79,NODE 80,DHW Nodes
 Component Set,36,BRANCH,MAIN SERVICE WATER LOOP DEMAND BRANCH 8,WATERUSE:CONNECTIONS,WATER USE CONNECTIONS 7,NODE 81,NODE 82,DHW Nodes
 Component Set,37,BRANCH,MAIN SERVICE WATER LOOP DEMAND BRANCH 9,WATERUSE:CONNECTIONS,WATER USE CONNECTIONS 8,NODE 83,NODE 84,DHW Nodes
 Component Set,38,BRANCH,MAIN SERVICE WATER LOOP DEMAND BRANCH 10,WATERUSE:CONNECTIONS,WATER USE CONNECTIONS 9,NODE 85,NODE 86,DHW Nodes
 Component Set,39,BRANCH,MAIN SERVICE WATER LOOP DEMAND BRANCH 11,WATERUSE:CONNECTIONS,WATER USE CONNECTIONS 10,NODE 87,NODE 88,DHW Nodes
 Component Set,40,BRANCH,MAIN SERVICE WATER LOOP DEMAND BYPASS BRANCH,PIPE:ADIABATIC,MAIN SERVICE WATER LOOP DEMAND BYPASS PIPE,MAIN SERVICE WATER LOOP DEMAND BYPASS PIPE INLET NODE,MAIN SERVICE WATER LOOP DEMAND BYPASS PIPE OUTLET NODE,Pipe Nodes
 Component Set,41,BRANCH,MAIN SERVICE WATER LOOP DEMAND OUTLET BRANCH,PIPE:ADIABATIC,PIPE ADIABATIC 7,NODE 68,NODE 59,Pipe Nodes
 Component Set,42,COILSYSTEM:COOLING:DX,COIL COOLING DX SINGLE SPEED 1 462KBTU/HR 8.21EER COILSYSTEM,COIL:COOLING:DX:SINGLESPEED,COIL COOLING DX SINGLE SPEED 1 462KBTU/HR 8.21EER,NODE 26,NODE 25,Air Nodes
 Component Set,43,COILSYSTEM:COOLING:DX,COIL COOLING DX SINGLE SPEED 2 91KBTU/HR 9.26EER COILSYSTEM,COIL:COOLING:DX:SINGLESPEED,COIL COOLING DX SINGLE SPEED 2 91KBTU/HR 9.26EER,NODE 38,NODE 37,Air Nodes
 Component Set,44,COILSYSTEM:COOLING:DX,COIL COOLING DX SINGLE SPEED 3 147KBTU/HR 9.08EER COILSYSTEM,COIL:COOLING:DX:SINGLESPEED,COIL COOLING DX SINGLE SPEED 3 147KBTU/HR 9.08EER,NODE 51,NODE 50,Air Nodes
 Component Set,45,WATERHEATER:HEATPUMP:PUMPEDCONDENSER,13GAL NATURALGAS WATER HEATER - 9KBTU/HR 0.82 THERM EFF ASHPWH,COIL:WATERHEATING:AIRTOWATERHEATPUMP:PUMPED,COIL WATER HEATING AIR TO WATER HEAT PUMP 1,13GAL NATURALGAS WATER HEATER - 9KBTU/HR 0.82 THERM EFF ASHPWH MIXER OUTLET - EVAP INLET,13GAL NATURALGAS WATER HEATER - 9KBTU/HR 0.82 THERM EFF ASHPWH EVAP OUTLET - FAN INLET,Air Nodes
 Component Set,46,WATERHEATER:HEATPUMP:PUMPEDCONDENSER,13GAL NATURALGAS WATER HEATER - 9KBTU/HR 0.82 THERM EFF ASHPWH,COIL:WATERHEATING:AIRTOWATERHEATPUMP:PUMPED,COIL WATER HEATING AIR TO WATER HEAT PUMP 1,13GAL NATURALGAS WATER HEATER - 9KBTU/HR 0.82 THERM EFF ASHPWH TANK OUTLET - CONDENSER INLET,13GAL NATURALGAS WATER HEATER - 9KBTU/HR 0.82 THERM EFF ASHPWH CONDENSER OUTLET - TANK INLET,HPWH To Coil
 Component Set,47,WATERHEATER:HEATPUMP:PUMPEDCONDENSER,13GAL NATURALGAS WATER HEATER - 9KBTU/HR 0.82 THERM EFF ASHPWH,FAN:ONOFF,FAN ON OFF 1,13GAL NATURALGAS WATER HEATER - 9KBTU/HR 0.82 THERM EFF ASHPWH EVAP OUTLET - FAN INLET,13GAL NATURALGAS WATER HEATER - 9KBTU/HR 0.82 THERM EFF ASHPWH FAN OUTLET - SPLITTER INLET,Air Nodes
 Component Set,48,ZONEHVAC:ENERGYRECOVERYVENTILATOR,ALL_ST=SALES AREA_FL=BUILDING STORY 1_SCH=C ERV DOAS,FAN:ONOFF,ALL_ST=SALES AREA_FL=BUILDING STORY 1_SCH=C ERV SUP FAN,ALL_ST=SALES AREA_FL=BUILDING STORY 1_SCH=C ERV DOAS SUPPLY FAN INLET NODE,NODE 106,Air Nodes
 Component Set,49,ZONEHVAC:ENERGYRECOVERYVENTILATOR,ALL_ST=SALES AREA_FL=BUILDING STORY 1_SCH=C ERV DOAS,FAN:ONOFF,ALL_ST=SALES AREA_FL=BUILDING STORY 1_SCH=C ERV EXH FAN,ALL_ST=SALES AREA_FL=BUILDING STORY 1_SCH=C ERV DOAS EXHAUST FAN INLET NODE,ALL_ST=SALES AREA_FL=BUILDING STORY 1_SCH=C ERV DOAS EXHAUST FAN OUTLET NODE,Air Nodes
 Component Set,50,ZONEHVAC:ENERGYRECOVERYVENTILATOR,ALL_ST=SALES AREA_FL=BUILDING STORY 1_SCH=C 1 ERV DOAS,FAN:ONOFF,ALL_ST=SALES AREA_FL=BUILDING STORY 1_SCH=C 1 ERV SUP FAN,ALL_ST=SALES AREA_FL=BUILDING STORY 1_SCH=C 1 ERV DOAS SUPPLY FAN INLET NODE,NODE 102,Air Nodes
 Component Set,51,ZONEHVAC:ENERGYRECOVERYVENTILATOR,ALL_ST=SALES AREA_FL=BUILDING STORY 1_SCH=C 1 ERV DOAS,FAN:ONOFF,ALL_ST=SALES AREA_FL=BUILDING STORY 1_SCH=C 1 ERV EXH FAN,ALL_ST=SALES AREA_FL=BUILDING STORY 1_SCH=C 1 ERV DOAS EXHAUST FAN INLET NODE,ALL_ST=SALES AREA_FL=BUILDING STORY 1_SCH=C 1 ERV DOAS EXHAUST FAN OUTLET NODE,Air Nodes
 Component Set,52,ZONEHVAC:ENERGYRECOVERYVENTILATOR,ALL_ST=SALES AREA_FL=BUILDING STORY 1_SCH=C 2 ERV DOAS,FAN:ONOFF,ALL_ST=SALES AREA_FL=BUILDING STORY 1_SCH=C 2 ERV SUP FAN,ALL_ST=SALES AREA_FL=BUILDING STORY 1_SCH=C 2 ERV DOAS SUPPLY FAN INLET NODE,NODE 104,Air Nodes
 Component Set,53,ZONEHVAC:ENERGYRECOVERYVENTILATOR,ALL_ST=SALES AREA_FL=BUILDING STORY 1_SCH=C 2 ERV DOAS,FAN:ONOFF,ALL_ST=SALES AREA_FL=BUILDING STORY 1_SCH=C 2 ERV EXH FAN,ALL_ST=SALES AREA_FL=BUILDING STORY 1_SCH=C 2 ERV DOAS EXHAUST FAN INLET NODE,ALL_ST=SALES AREA_FL=BUILDING STORY 1_SCH=C 2 ERV DOAS EXHAUST FAN OUTLET NODE,Air Nodes
 Component Set,54,WATERHEATER:HEATPUMP:PUMPEDCONDENSER,13GAL NATURALGAS WATER HEATER - 9KBTU/HR 0.82 THERM EFF ASHPWH,WATERHEATER:MIXED,13GAL NATURALGAS WATER HEATER - 9KBTU/HR 0.82 THERM EFF,13GAL NATURALGAS WATER HEATER - 9KBTU/HR 0.82 THERM EFF ASHPWH CONDENSER OUTLET - TANK INLET,13GAL NATURALGAS WATER HEATER - 9KBTU/HR 0.82 THERM EFF ASHPWH TANK OUTLET - CONDENSER INLET,HPWH To Tank
 Component Set,55,ZONEHVAC:ENERGYRECOVERYVENTILATOR,ALL_ST=SALES AREA_FL=BUILDING STORY 1_SCH=C ERV DOAS,HEATEXCHANGER:AIRTOAIR:SENSIBLEANDLATENT,ALL_ST=SALES AREA_FL=BUILDING STORY 1_SCH=C ERV HX,ALL_ST=SALES AREA_FL=BUILDING STORY 1_SCH=C ERV DOAS OA NODE,ALL_ST=SALES AREA_FL=BUILDING STORY 1_SCH=C ERV DOAS SUPPLY FAN INLET NODE,Process Air Nodes
 Component Set,56,ZONEHVAC:ENERGYRECOVERYVENTILATOR,ALL_ST=SALES AREA_FL=BUILDING STORY 1_SCH=C 1 ERV DOAS,HEATEXCHANGER:AIRTOAIR:SENSIBLEANDLATENT,ALL_ST=SALES AREA_FL=BUILDING STORY 1_SCH=C 1 ERV HX,ALL_ST=SALES AREA_FL=BUILDING STORY 1_SCH=C 1 ERV DOAS OA NODE,ALL_ST=SALES AREA_FL=BUILDING STORY 1_SCH=C 1 ERV DOAS SUPPLY FAN INLET NODE,Process Air Nodes
 Component Set,57,ZONEHVAC:ENERGYRECOVERYVENTILATOR,ALL_ST=SALES AREA_FL=BUILDING STORY 1_SCH=C 2 ERV DOAS,HEATEXCHANGER:AIRTOAIR:SENSIBLEANDLATENT,ALL_ST=SALES AREA_FL=BUILDING STORY 1_SCH=C 2 ERV HX,ALL_ST=SALES AREA_FL=BUILDING STORY 1_SCH=C 2 ERV DOAS OA NODE,ALL_ST=SALES AREA_FL=BUILDING STORY 1_SCH=C 2 ERV DOAS SUPPLY FAN INLET NODE,Process Air Nodes
 Component Set,58,AIRLOOPHVAC:OUTDOORAIRSYSTEM,AIR LOOP HVAC OUTDOOR AIR SYSTEM 1,HEATEXCHANGER:AIRTOAIR:SENSIBLEANDLATENT,SYS_3_PSZ ALL_ST=SALES AREA_FL=BUILDING STORY 1_SCH=C ERV,NODE 22,NODE 90,Process Air Nodes
 Component Set,59,AIRLOOPHVAC:OUTDOORAIRSYSTEM,AIR LOOP HVAC OUTDOOR AIR SYSTEM 2,HEATEXCHANGER:AIRTOAIR:SENSIBLEANDLATENT,SYS_3_PSZ ALL_ST=SALES AREA_FL=BUILDING STORY 1_SCH=C 1 ERV,NODE 34,NODE 92,Process Air Nodes
 Component Set,60,AIRLOOPHVAC:OUTDOORAIRSYSTEM,AIR LOOP HVAC OUTDOOR AIR SYSTEM 3,HEATEXCHANGER:AIRTOAIR:SENSIBLEANDLATENT,SYS_3_PSZ ALL_ST=SALES AREA_FL=BUILDING STORY 1_SCH=C 2 ERV,NODE 47,NODE 94,Process Air Nodes
 Component Set,61,ZONEHVAC:AIRDISTRIBUTIONUNIT,ADU ALL_ST=SALES AREA_FL=BUILDING STORY 1_SCH=C VAV TERMINAL,AIRTERMINAL:SINGLEDUCT:VAV:HEATANDCOOL:NOREHEAT,ALL_ST=SALES AREA_FL=BUILDING STORY 1_SCH=C VAV TERMINAL,NODE 100,NODE 21,Air Nodes
 Component Set,62,ZONEHVAC:AIRDISTRIBUTIONUNIT,ADU ALL_ST=SALES AREA_FL=BUILDING STORY 1_SCH=C 1 VAV TERMINAL,AIRTERMINAL:SINGLEDUCT:VAV:HEATANDCOOL:NOREHEAT,ALL_ST=SALES AREA_FL=BUILDING STORY 1_SCH=C 1 VAV TERMINAL,NODE 96,NODE 33,Air Nodes
 Component Set,63,ZONEHVAC:AIRDISTRIBUTIONUNIT,ADU ALL_ST=SALES AREA_FL=BUILDING STORY 1_SCH=C 2 VAV TERMINAL,AIRTERMINAL:SINGLEDUCT:VAV:HEATANDCOOL:NOREHEAT,ALL_ST=SALES AREA_FL=BUILDING STORY 1_SCH=C 2 VAV TERMINAL,NODE 98,NODE 46,Air Nodes
 Component Set,64,AIRLOOPHVAC:OUTDOORAIRSYSTEM,AIR LOOP HVAC OUTDOOR AIR SYSTEM 1,OUTDOORAIR:MIXER,AIR LOOP HVAC OUTDOOR AIR SYSTEM 1 OUTDOOR AIR MIXER,NODE 90,NODE 26,Air Nodes
 Component Set,65,AIRLOOPHVAC:OUTDOORAIRSYSTEM,AIR LOOP HVAC OUTDOOR AIR SYSTEM 2,OUTDOORAIR:MIXER,AIR LOOP HVAC OUTDOOR AIR SYSTEM 2 OUTDOOR AIR MIXER,NODE 92,NODE 38,Air Nodes
 Component Set,66,AIRLOOPHVAC:OUTDOORAIRSYSTEM,AIR LOOP HVAC OUTDOOR AIR SYSTEM 3,OUTDOORAIR:MIXER,AIR LOOP HVAC OUTDOOR AIR SYSTEM 3 OUTDOOR AIR MIXER,NODE 94,NODE 51,Air Nodes
! ===============================================================
! <# Plant Loops>,<Number of Plant Loops>
 #Plant Loops,2
! <Plant Loop>,<Plant Loop Name>,<Loop Type>,<Inlet Node Name>,<Outlet Node Name>,<Branch List>,<Connector List>
! <Plant Loop Connector>,<Connector Type>,<Connector Name>,<Loop Name>,<Loop Type>,<Number of Inlets/Outlets>
! <Plant Loop Connector Branches>,<Connector Node Count>,<Connector Type>,<Connector Name>,<Inlet Branch>,<Outlet Branch>,<Loop Name>,<Loop Type>
! <Plant Loop Connector Nodes>,<Connector Node Count>,<Connector Type>,<Connector Name>,<Inlet Node>,<Outlet Node>,<Loop Name>,<Loop Type>
! <Plant Loop Supply Connection>,<Plant Loop Name>,<Supply Side Outlet Node Name>,<Demand Side Inlet Node Name>
! <Plant Loop Return Connection>,<Plant Loop Name>,<Demand Side Outlet Node Name>,<Supply Side Inlet Node Name>
 Plant Loop,HOT WATER LOOP,Demand,NODE 6,NODE 8,HOT WATER LOOP DEMAND BRANCHES,HOT WATER LOOP DEMAND CONNECTOR LIST
   Plant Loop Connector,Splitter,HOT WATER LOOP DEMAND SPLITTER,HOT WATER LOOP,Demand,4
     Plant Loop Connector Branches,1,Splitter,HOT WATER LOOP DEMAND SPLITTER,HOT WATER LOOP DEMAND INLET BRANCH,HOT WATER LOOP DEMAND BRANCH 1,HOT WATER LOOP,Demand
     Plant Loop Connector Nodes,   1,Splitter,HOT WATER LOOP DEMAND SPLITTER,HOT WATER LOOP DEMAND INLET PIPE NODE,NODE 9,HOT WATER LOOP,Demand
     Plant Loop Connector Branches,2,Splitter,HOT WATER LOOP DEMAND SPLITTER,HOT WATER LOOP DEMAND INLET BRANCH,HOT WATER LOOP DEMAND BRANCH 2,HOT WATER LOOP,Demand
     Plant Loop Connector Nodes,   2,Splitter,HOT WATER LOOP DEMAND SPLITTER,HOT WATER LOOP DEMAND INLET PIPE NODE,NODE 40,HOT WATER LOOP,Demand
     Plant Loop Connector Branches,3,Splitter,HOT WATER LOOP DEMAND SPLITTER,HOT WATER LOOP DEMAND INLET BRANCH,HOT WATER LOOP DEMAND BRANCH 3,HOT WATER LOOP,Demand
     Plant Loop Connector Nodes,   3,Splitter,HOT WATER LOOP DEMAND SPLITTER,HOT WATER LOOP DEMAND INLET PIPE NODE,NODE 53,HOT WATER LOOP,Demand
     Plant Loop Connector Branches,4,Splitter,HOT WATER LOOP DEMAND SPLITTER,HOT WATER LOOP DEMAND INLET BRANCH,HOT WATER LOOP DEMAND BYPASS BRANCH,HOT WATER LOOP,Demand
     Plant Loop Connector Nodes,   4,Splitter,HOT WATER LOOP DEMAND SPLITTER,HOT WATER LOOP DEMAND INLET PIPE NODE,HOT WATER LOOP DEMAND BYPASS PIPE INLET NODE,HOT WATER LOOP,Demand
   Plant Loop Connector,Mixer,HOT WATER LOOP DEMAND MIXER,HOT WATER LOOP,Demand,4
     Plant Loop Connector Branches,1,Mixer,HOT WATER LOOP DEMAND MIXER,HOT WATER LOOP DEMAND BRANCH 1,HOT WATER LOOP DEMAND OUTLET BRANCH,HOT WATER LOOP,Demand
     Plant Loop Connector Nodes,   1,Mixer,HOT WATER LOOP DEMAND MIXER,NODE 28,HOT WATER LOOP DEMAND OUTLET PIPE NODE,HOT WATER LOOP,Demand
     Plant Loop Connector Branches,2,Mixer,HOT WATER LOOP DEMAND MIXER,HOT WATER LOOP DEMAND BRANCH 2,HOT WATER LOOP DEMAND OUTLET BRANCH,HOT WATER LOOP,Demand
     Plant Loop Connector Nodes,   2,Mixer,HOT WATER LOOP DEMAND MIXER,NODE 41,HOT WATER LOOP DEMAND OUTLET PIPE NODE,HOT WATER LOOP,Demand
     Plant Loop Connector Branches,3,Mixer,HOT WATER LOOP DEMAND MIXER,HOT WATER LOOP DEMAND BRANCH 3,HOT WATER LOOP DEMAND OUTLET BRANCH,HOT WATER LOOP,Demand
     Plant Loop Connector Nodes,   3,Mixer,HOT WATER LOOP DEMAND MIXER,NODE 54,HOT WATER LOOP DEMAND OUTLET PIPE NODE,HOT WATER LOOP,Demand
     Plant Loop Connector Branches,4,Mixer,HOT WATER LOOP DEMAND MIXER,HOT WATER LOOP DEMAND BYPASS BRANCH,HOT WATER LOOP DEMAND OUTLET BRANCH,HOT WATER LOOP,Demand
     Plant Loop Connector Nodes,   4,Mixer,HOT WATER LOOP DEMAND MIXER,HOT WATER LOOP DEMAND BYPASS PIPE OUTLET NODE,HOT WATER LOOP DEMAND OUTLET PIPE NODE,HOT WATER LOOP,Demand
 Plant Loop,HOT WATER LOOP,Supply,NODE 2,NODE 3,HOT WATER LOOP SUPPLY BRANCHES,HOT WATER LOOP SUPPLY CONNECTOR LIST
   Plant Loop Connector,Splitter,HOT WATER LOOP SUPPLY SPLITTER,HOT WATER LOOP,Supply,3
     Plant Loop Connector Branches,1,Splitter,HOT WATER LOOP SUPPLY SPLITTER,HOT WATER LOOP SUPPLY INLET BRANCH,HOT WATER LOOP SUPPLY BRANCH 1,HOT WATER LOOP,Supply
     Plant Loop Connector Nodes,   1,Splitter,HOT WATER LOOP SUPPLY SPLITTER,NODE 10,NODE 5,HOT WATER LOOP,Supply
     Plant Loop Connector Branches,2,Splitter,HOT WATER LOOP SUPPLY SPLITTER,HOT WATER LOOP SUPPLY INLET BRANCH,HOT WATER LOOP SUPPLY BRANCH 2,HOT WATER LOOP,Supply
     Plant Loop Connector Nodes,   2,Splitter,HOT WATER LOOP SUPPLY SPLITTER,NODE 10,NODE 12,HOT WATER LOOP,Supply
     Plant Loop Connector Branches,3,Splitter,HOT WATER LOOP SUPPLY SPLITTER,HOT WATER LOOP SUPPLY INLET BRANCH,HOT WATER LOOP SUPPLY BRANCH 3,HOT WATER LOOP,Supply
     Plant Loop Connector Nodes,   3,Splitter,HOT WATER LOOP SUPPLY SPLITTER,NODE 10,NODE 14,HOT WATER LOOP,Supply
   Plant Loop Connector,Mixer,HOT WATER LOOP SUPPLY MIXER,HOT WATER LOOP,Supply,3
     Plant Loop Connector Branches,1,Mixer,HOT WATER LOOP SUPPLY MIXER,HOT WATER LOOP SUPPLY BRANCH 1,HOT WATER LOOP SUPPLY OUTLET BRANCH,HOT WATER LOOP,Supply
     Plant Loop Connector Nodes,   1,Mixer,HOT WATER LOOP SUPPLY MIXER,NODE 11,NODE 16,HOT WATER LOOP,Supply
     Plant Loop Connector Branches,2,Mixer,HOT WATER LOOP SUPPLY MIXER,HOT WATER LOOP SUPPLY BRANCH 2,HOT WATER LOOP SUPPLY OUTLET BRANCH,HOT WATER LOOP,Supply
     Plant Loop Connector Nodes,   2,Mixer,HOT WATER LOOP SUPPLY MIXER,NODE 13,NODE 16,HOT WATER LOOP,Supply
     Plant Loop Connector Branches,3,Mixer,HOT WATER LOOP SUPPLY MIXER,HOT WATER LOOP SUPPLY BRANCH 3,HOT WATER LOOP SUPPLY OUTLET BRANCH,HOT WATER LOOP,Supply
     Plant Loop Connector Nodes,   3,Mixer,HOT WATER LOOP SUPPLY MIXER,NODE 15,NODE 16,HOT WATER LOOP,Supply
 Plant Loop Supply Connection,HOT WATER LOOP,NODE 3,NODE 6
 Plant Loop Return Connection,HOT WATER LOOP,NODE 8,NODE 2
 Plant Loop,MAIN SERVICE WATER LOOP,Demand,NODE 58,NODE 59,MAIN SERVICE WATER LOOP DEMAND BRANCHES,MAIN SERVICE WATER LOOP DEMAND CONNECTOR LIST
   Plant Loop Connector,Splitter,MAIN SERVICE WATER LOOP DEMAND SPLITTER,MAIN SERVICE WATER LOOP,Demand,12
     Plant Loop Connector Branches,1,Splitter,MAIN SERVICE WATER LOOP DEMAND SPLITTER,MAIN SERVICE WATER LOOP DEMAND INLET BRANCH,MAIN SERVICE WATER LOOP DEMAND BRANCH 1,MAIN SERVICE WATER LOOP,Demand
     Plant Loop Connector Nodes,   1,Splitter,MAIN SERVICE WATER LOOP DEMAND SPLITTER,NODE 67,NODE 60,MAIN SERVICE WATER LOOP,Demand
     Plant Loop Connector Branches,2,Splitter,MAIN SERVICE WATER LOOP DEMAND SPLITTER,MAIN SERVICE WATER LOOP DEMAND INLET BRANCH,MAIN SERVICE WATER LOOP DEMAND BRANCH 2,MAIN SERVICE WATER LOOP,Demand
     Plant Loop Connector Nodes,   2,Splitter,MAIN SERVICE WATER LOOP DEMAND SPLITTER,NODE 67,NODE 69,MAIN SERVICE WATER LOOP,Demand
     Plant Loop Connector Branches,3,Splitter,MAIN SERVICE WATER LOOP DEMAND SPLITTER,MAIN SERVICE WATER LOOP DEMAND INLET BRANCH,MAIN SERVICE WATER LOOP DEMAND BRANCH 3,MAIN SERVICE WATER LOOP,Demand
     Plant Loop Connector Nodes,   3,Splitter,MAIN SERVICE WATER LOOP DEMAND SPLITTER,NODE 67,NODE 71,MAIN SERVICE WATER LOOP,Demand
     Plant Loop Connector Branches,4,Splitter,MAIN SERVICE WATER LOOP DEMAND SPLITTER,MAIN SERVICE WATER LOOP DEMAND INLET BRANCH,MAIN SERVICE WATER LOOP DEMAND BRANCH 4,MAIN SERVICE WATER LOOP,Demand
     Plant Loop Connector Nodes,   4,Splitter,MAIN SERVICE WATER LOOP DEMAND SPLITTER,NODE 67,NODE 73,MAIN SERVICE WATER LOOP,Demand
     Plant Loop Connector Branches,5,Splitter,MAIN SERVICE WATER LOOP DEMAND SPLITTER,MAIN SERVICE WATER LOOP DEMAND INLET BRANCH,MAIN SERVICE WATER LOOP DEMAND BRANCH 5,MAIN SERVICE WATER LOOP,Demand
     Plant Loop Connector Nodes,   5,Splitter,MAIN SERVICE WATER LOOP DEMAND SPLITTER,NODE 67,NODE 75,MAIN SERVICE WATER LOOP,Demand
     Plant Loop Connector Branches,6,Splitter,MAIN SERVICE WATER LOOP DEMAND SPLITTER,MAIN SERVICE WATER LOOP DEMAND INLET BRANCH,MAIN SERVICE WATER LOOP DEMAND BRANCH 6,MAIN SERVICE WATER LOOP,Demand
     Plant Loop Connector Nodes,   6,Splitter,MAIN SERVICE WATER LOOP DEMAND SPLITTER,NODE 67,NODE 77,MAIN SERVICE WATER LOOP,Demand
     Plant Loop Connector Branches,7,Splitter,MAIN SERVICE WATER LOOP DEMAND SPLITTER,MAIN SERVICE WATER LOOP DEMAND INLET BRANCH,MAIN SERVICE WATER LOOP DEMAND BRANCH 7,MAIN SERVICE WATER LOOP,Demand
     Plant Loop Connector Nodes,   7,Splitter,MAIN SERVICE WATER LOOP DEMAND SPLITTER,NODE 67,NODE 79,MAIN SERVICE WATER LOOP,Demand
     Plant Loop Connector Branches,8,Splitter,MAIN SERVICE WATER LOOP DEMAND SPLITTER,MAIN SERVICE WATER LOOP DEMAND INLET BRANCH,MAIN SERVICE WATER LOOP DEMAND BRANCH 8,MAIN SERVICE WATER LOOP,Demand
     Plant Loop Connector Nodes,   8,Splitter,MAIN SERVICE WATER LOOP DEMAND SPLITTER,NODE 67,NODE 81,MAIN SERVICE WATER LOOP,Demand
     Plant Loop Connector Branches,9,Splitter,MAIN SERVICE WATER LOOP DEMAND SPLITTER,MAIN SERVICE WATER LOOP DEMAND INLET BRANCH,MAIN SERVICE WATER LOOP DEMAND BRANCH 9,MAIN SERVICE WATER LOOP,Demand
     Plant Loop Connector Nodes,   9,Splitter,MAIN SERVICE WATER LOOP DEMAND SPLITTER,NODE 67,NODE 83,MAIN SERVICE WATER LOOP,Demand
     Plant Loop Connector Branches,10,Splitter,MAIN SERVICE WATER LOOP DEMAND SPLITTER,MAIN SERVICE WATER LOOP DEMAND INLET BRANCH,MAIN SERVICE WATER LOOP DEMAND BRANCH 10,MAIN SERVICE WATER LOOP,Demand
     Plant Loop Connector Nodes,   10,Splitter,MAIN SERVICE WATER LOOP DEMAND SPLITTER,NODE 67,NODE 85,MAIN SERVICE WATER LOOP,Demand
     Plant Loop Connector Branches,11,Splitter,MAIN SERVICE WATER LOOP DEMAND SPLITTER,MAIN SERVICE WATER LOOP DEMAND INLET BRANCH,MAIN SERVICE WATER LOOP DEMAND BRANCH 11,MAIN SERVICE WATER LOOP,Demand
     Plant Loop Connector Nodes,   11,Splitter,MAIN SERVICE WATER LOOP DEMAND SPLITTER,NODE 67,NODE 87,MAIN SERVICE WATER LOOP,Demand
     Plant Loop Connector Branches,12,Splitter,MAIN SERVICE WATER LOOP DEMAND SPLITTER,MAIN SERVICE WATER LOOP DEMAND INLET BRANCH,MAIN SERVICE WATER LOOP DEMAND BYPASS BRANCH,MAIN SERVICE WATER LOOP,Demand
     Plant Loop Connector Nodes,   12,Splitter,MAIN SERVICE WATER LOOP DEMAND SPLITTER,NODE 67,MAIN SERVICE WATER LOOP DEMAND BYPASS PIPE INLET NODE,MAIN SERVICE WATER LOOP,Demand
   Plant Loop Connector,Mixer,MAIN SERVICE WATER LOOP DEMAND MIXER,MAIN SERVICE WATER LOOP,Demand,12
     Plant Loop Connector Branches,1,Mixer,MAIN SERVICE WATER LOOP DEMAND MIXER,MAIN SERVICE WATER LOOP DEMAND BRANCH 1,MAIN SERVICE WATER LOOP DEMAND OUTLET BRANCH,MAIN SERVICE WATER LOOP,Demand
     Plant Loop Connector Nodes,   1,Mixer,MAIN SERVICE WATER LOOP DEMAND MIXER,NODE 65,NODE 68,MAIN SERVICE WATER LOOP,Demand
     Plant Loop Connector Branches,2,Mixer,MAIN SERVICE WATER LOOP DEMAND MIXER,MAIN SERVICE WATER LOOP DEMAND BRANCH 2,MAIN SERVICE WATER LOOP DEMAND OUTLET BRANCH,MAIN SERVICE WATER LOOP,Demand
     Plant Loop Connector Nodes,   2,Mixer,MAIN SERVICE WATER LOOP DEMAND MIXER,NODE 70,NODE 68,MAIN SERVICE WATER LOOP,Demand
     Plant Loop Connector Branches,3,Mixer,MAIN SERVICE WATER LOOP DEMAND MIXER,MAIN SERVICE WATER LOOP DEMAND BRANCH 3,MAIN SERVICE WATER LOOP DEMAND OUTLET BRANCH,MAIN SERVICE WATER LOOP,Demand
     Plant Loop Connector Nodes,   3,Mixer,MAIN SERVICE WATER LOOP DEMAND MIXER,NODE 72,NODE 68,MAIN SERVICE WATER LOOP,Demand
     Plant Loop Connector Branches,4,Mixer,MAIN SERVICE WATER LOOP DEMAND MIXER,MAIN SERVICE WATER LOOP DEMAND BRANCH 4,MAIN SERVICE WATER LOOP DEMAND OUTLET BRANCH,MAIN SERVICE WATER LOOP,Demand
     Plant Loop Connector Nodes,   4,Mixer,MAIN SERVICE WATER LOOP DEMAND MIXER,NODE 74,NODE 68,MAIN SERVICE WATER LOOP,Demand
     Plant Loop Connector Branches,5,Mixer,MAIN SERVICE WATER LOOP DEMAND MIXER,MAIN SERVICE WATER LOOP DEMAND BRANCH 5,MAIN SERVICE WATER LOOP DEMAND OUTLET BRANCH,MAIN SERVICE WATER LOOP,Demand
     Plant Loop Connector Nodes,   5,Mixer,MAIN SERVICE WATER LOOP DEMAND MIXER,NODE 76,NODE 68,MAIN SERVICE WATER LOOP,Demand
     Plant Loop Connector Branches,6,Mixer,MAIN SERVICE WATER LOOP DEMAND MIXER,MAIN SERVICE WATER LOOP DEMAND BRANCH 6,MAIN SERVICE WATER LOOP DEMAND OUTLET BRANCH,MAIN SERVICE WATER LOOP,Demand
     Plant Loop Connector Nodes,   6,Mixer,MAIN SERVICE WATER LOOP DEMAND MIXER,NODE 78,NODE 68,MAIN SERVICE WATER LOOP,Demand
     Plant Loop Connector Branches,7,Mixer,MAIN SERVICE WATER LOOP DEMAND MIXER,MAIN SERVICE WATER LOOP DEMAND BRANCH 7,MAIN SERVICE WATER LOOP DEMAND OUTLET BRANCH,MAIN SERVICE WATER LOOP,Demand
     Plant Loop Connector Nodes,   7,Mixer,MAIN SERVICE WATER LOOP DEMAND MIXER,NODE 80,NODE 68,MAIN SERVICE WATER LOOP,Demand
     Plant Loop Connector Branches,8,Mixer,MAIN SERVICE WATER LOOP DEMAND MIXER,MAIN SERVICE WATER LOOP DEMAND BRANCH 8,MAIN SERVICE WATER LOOP DEMAND OUTLET BRANCH,MAIN SERVICE WATER LOOP,Demand
     Plant Loop Connector Nodes,   8,Mixer,MAIN SERVICE WATER LOOP DEMAND MIXER,NODE 82,NODE 68,MAIN SERVICE WATER LOOP,Demand
     Plant Loop Connector Branches,9,Mixer,MAIN SERVICE WATER LOOP DEMAND MIXER,MAIN SERVICE WATER LOOP DEMAND BRANCH 9,MAIN SERVICE WATER LOOP DEMAND OUTLET BRANCH,MAIN SERVICE WATER LOOP,Demand
     Plant Loop Connector Nodes,   9,Mixer,MAIN SERVICE WATER LOOP DEMAND MIXER,NODE 84,NODE 68,MAIN SERVICE WATER LOOP,Demand
     Plant Loop Connector Branches,10,Mixer,MAIN SERVICE WATER LOOP DEMAND MIXER,MAIN SERVICE WATER LOOP DEMAND BRANCH 10,MAIN SERVICE WATER LOOP DEMAND OUTLET BRANCH,MAIN SERVICE WATER LOOP,Demand
     Plant Loop Connector Nodes,   10,Mixer,MAIN SERVICE WATER LOOP DEMAND MIXER,NODE 86,NODE 68,MAIN SERVICE WATER LOOP,Demand
     Plant Loop Connector Branches,11,Mixer,MAIN SERVICE WATER LOOP DEMAND MIXER,MAIN SERVICE WATER LOOP DEMAND BRANCH 11,MAIN SERVICE WATER LOOP DEMAND OUTLET BRANCH,MAIN SERVICE WATER LOOP,Demand
     Plant Loop Connector Nodes,   11,Mixer,MAIN SERVICE WATER LOOP DEMAND MIXER,NODE 88,NODE 68,MAIN SERVICE WATER LOOP,Demand
     Plant Loop Connector Branches,12,Mixer,MAIN SERVICE WATER LOOP DEMAND MIXER,MAIN SERVICE WATER LOOP DEMAND BYPASS BRANCH,MAIN SERVICE WATER LOOP DEMAND OUTLET BRANCH,MAIN SERVICE WATER LOOP,Demand
     Plant Loop Connector Nodes,   12,Mixer,MAIN SERVICE WATER LOOP DEMAND MIXER,MAIN SERVICE WATER LOOP DEMAND BYPASS PIPE OUTLET NODE,NODE 68,MAIN SERVICE WATER LOOP,Demand
 Plant Loop,MAIN SERVICE WATER LOOP,Supply,NODE 55,NODE 56,MAIN SERVICE WATER LOOP SUPPLY BRANCHES,MAIN SERVICE WATER LOOP SUPPLY CONNECTOR LIST
   Plant Loop Connector,Splitter,MAIN SERVICE WATER LOOP SUPPLY SPLITTER,MAIN SERVICE WATER LOOP,Supply,2
     Plant Loop Connector Branches,1,Splitter,MAIN SERVICE WATER LOOP SUPPLY SPLITTER,MAIN SERVICE WATER LOOP SUPPLY INLET BRANCH,MAIN SERVICE WATER LOOP SUPPLY BRANCH 1,MAIN SERVICE WATER LOOP,Supply
     Plant Loop Connector Nodes,   1,Splitter,MAIN SERVICE WATER LOOP SUPPLY SPLITTER,NODE 61,NODE 57,MAIN SERVICE WATER LOOP,Supply
     Plant Loop Connector Branches,2,Splitter,MAIN SERVICE WATER LOOP SUPPLY SPLITTER,MAIN SERVICE WATER LOOP SUPPLY INLET BRANCH,MAIN SERVICE WATER LOOP SUPPLY BRANCH 2,MAIN SERVICE WATER LOOP,Supply
     Plant Loop Connector Nodes,   2,Splitter,MAIN SERVICE WATER LOOP SUPPLY SPLITTER,NODE 61,NODE 63,MAIN SERVICE WATER LOOP,Supply
   Plant Loop Connector,Mixer,MAIN SERVICE WATER LOOP SUPPLY MIXER,MAIN SERVICE WATER LOOP,Supply,2
     Plant Loop Connector Branches,1,Mixer,MAIN SERVICE WATER LOOP SUPPLY MIXER,MAIN SERVICE WATER LOOP SUPPLY BRANCH 1,MAIN SERVICE WATER LOOP SUPPLY OUTLET BRANCH,MAIN SERVICE WATER LOOP,Supply
     Plant Loop Connector Nodes,   1,Mixer,MAIN SERVICE WATER LOOP SUPPLY MIXER,NODE 62,NODE 66,MAIN SERVICE WATER LOOP,Supply
     Plant Loop Connector Branches,2,Mixer,MAIN SERVICE WATER LOOP SUPPLY MIXER,MAIN SERVICE WATER LOOP SUPPLY BRANCH 2,MAIN SERVICE WATER LOOP SUPPLY OUTLET BRANCH,MAIN SERVICE WATER LOOP,Supply
     Plant Loop Connector Nodes,   2,Mixer,MAIN SERVICE WATER LOOP SUPPLY MIXER,NODE 64,NODE 66,MAIN SERVICE WATER LOOP,Supply
 Plant Loop Supply Connection,MAIN SERVICE WATER LOOP,NODE 56,NODE 58
 Plant Loop Return Connection,MAIN SERVICE WATER LOOP,NODE 59,NODE 55
! ===============================================================
! <# Condenser Loops>,<Number of Condenser Loops>
 #Condenser Loops,0
! <Condenser Loop>,<Condenser Loop Name>,<Loop Type>,<Inlet Node Name>,<Outlet Node Name>,<Branch List>,<Connector List>
! <Condenser Loop Connector>,<Connector Type>,<Connector Name>,<Loop Name>,<Loop Type>,<Number of Inlets/Outlets>
! <Condenser Loop Connector Branches>,<Connector Node Count>,<Connector Type>,<Connector Name>,<Inlet Branch>,<Outlet Branch>,<Loop Name>,<Loop Type>
! <Condenser Loop Connector Nodes>,<Connector Node Count>,<Connector Type>,<Connector Name>,<Inlet Node>,<Outlet Node>,<Loop Name>,<Loop Type>
! <Condenser Loop Supply Connection>,<Condenser Loop Name>,<Supply Side Outlet Node Name>,<Demand Side Inlet Node Name>
! <Condenser Loop Return Connection>,<Condenser Loop Name>,<Demand Side Outlet Node Name>,<Supply Side Inlet Node Name>
! ===============================================================
! <# Controlled Zones>,<Number of Controlled Zones>
 #Controlled Zones,3
! <Controlled Zone>,<Controlled Zone Name>,<Equip List Name>,<Control List Name>,<Zone Node Name>,<# Inlet Nodes>,<# Exhaust Nodes>,<# Return Nodes>
! <Controlled Zone Inlet>,<Inlet Node Count>,<Controlled Zone Name>,<Supply Air Inlet Node Name>,<SD Sys:Cooling/Heating [DD:Cooling] Inlet Node Name>,<DD Sys:Heating Inlet Node Name>
! <Controlled Zone Exhaust>,<Exhaust Node Count>,<Controlled Zone Name>,<Exhaust Air Node Name>
 Controlled Zone,ALL_ST=SALES AREA_FL=BUILDING STORY 1_SCH=C,ALL_ST=SALES AREA_FL=BUILDING STORY 1_SCH=C EQUIPMENT LIST,,NODE 1,3,2,1
   Controlled Zone Inlet,1,ALL_ST=SALES AREA_FL=BUILDING STORY 1_SCH=C,NODE 21,NODE 100,N/A
   Controlled Zone Inlet,2,ALL_ST=SALES AREA_FL=BUILDING STORY 1_SCH=C,NODE 106,Undefined,N/A
   Controlled Zone Inlet,3,ALL_ST=SALES AREA_FL=BUILDING STORY 1_SCH=C,NODE 108,Undefined,N/A
   Controlled Zone Exhaust,1,ALL_ST=SALES AREA_FL=BUILDING STORY 1_SCH=C,NODE 105
   Controlled Zone Exhaust,2,ALL_ST=SALES AREA_FL=BUILDING STORY 1_SCH=C,NODE 107
   Controlled Zone Return,1,ALL_ST=SALES AREA_FL=BUILDING STORY 1_SCH=C,NODE 27
 Controlled Zone,ALL_ST=SALES AREA_FL=BUILDING STORY 1_SCH=C 1,ALL_ST=SALES AREA_FL=BUILDING STORY 1_SCH=C 1 EQUIPMENT LIST,,NODE 4,2,1,1
   Controlled Zone Inlet,1,ALL_ST=SALES AREA_FL=BUILDING STORY 1_SCH=C 1,NODE 33,NODE 96,N/A
   Controlled Zone Inlet,2,ALL_ST=SALES AREA_FL=BUILDING STORY 1_SCH=C 1,NODE 102,Undefined,N/A
   Controlled Zone Exhaust,1,ALL_ST=SALES AREA_FL=BUILDING STORY 1_SCH=C 1,NODE 101
   Controlled Zone Return,1,ALL_ST=SALES AREA_FL=BUILDING STORY 1_SCH=C 1,NODE 39
 Controlled Zone,ALL_ST=SALES AREA_FL=BUILDING STORY 1_SCH=C 2,ALL_ST=SALES AREA_FL=BUILDING STORY 1_SCH=C 2 EQUIPMENT LIST,,NODE 7,2,1,1
   Controlled Zone Inlet,1,ALL_ST=SALES AREA_FL=BUILDING STORY 1_SCH=C 2,NODE 46,NODE 98,N/A
   Controlled Zone Inlet,2,ALL_ST=SALES AREA_FL=BUILDING STORY 1_SCH=C 2,NODE 104,Undefined,N/A
   Controlled Zone Exhaust,1,ALL_ST=SALES AREA_FL=BUILDING STORY 1_SCH=C 2,NODE 103
   Controlled Zone Return,1,ALL_ST=SALES AREA_FL=BUILDING STORY 1_SCH=C 2,NODE 52
! ===============================================================
! <#Zone Equipment Lists>,<Number of Zone Equipment Lists>
 #Zone Equipment Lists,3
! <Zone Equipment List>,<Zone Equipment List Count>,<Zone Equipment List Name>,<Zone Name>,<Number of Components>
! <Zone Equipment Component>,<Component Count>,<Component Type>,<Component Name>,<Zone Name>,<Heating Priority>,<Cooling Priority>
 Zone Equipment List,1,ALL_ST=SALES AREA_FL=BUILDING STORY 1_SCH=C EQUIPMENT LIST,ALL_ST=SALES AREA_FL=BUILDING STORY 1_SCH=C,4
   Zone Equipment Component,1,WATERHEATER:HEATPUMP:PUMPEDCONDENSER,13GAL NATURALGAS WATER HEATER - 9KBTU/HR 0.82 THERM EFF ASHPWH,ALL_ST=SALES AREA_FL=BUILDING STORY 1_SCH=C,1,1
   Zone Equipment Component,2,ZONEHVAC:ENERGYRECOVERYVENTILATOR,ALL_ST=SALES AREA_FL=BUILDING STORY 1_SCH=C ERV DOAS,ALL_ST=SALES AREA_FL=BUILDING STORY 1_SCH=C,2,2
   Zone Equipment Component,3,ZONEHVAC:BASEBOARD:CONVECTIVE:WATER,ZONE HVAC BASEBOARD CONVECTIVE WATER 1,ALL_ST=SALES AREA_FL=BUILDING STORY 1_SCH=C,3,3
   Zone Equipment Component,4,ZONEHVAC:AIRDISTRIBUTIONUNIT,ADU ALL_ST=SALES AREA_FL=BUILDING STORY 1_SCH=C VAV TERMINAL,ALL_ST=SALES AREA_FL=BUILDING STORY 1_SCH=C,4,4
 Zone Equipment List,2,ALL_ST=SALES AREA_FL=BUILDING STORY 1_SCH=C 1 EQUIPMENT LIST,ALL_ST=SALES AREA_FL=BUILDING STORY 1_SCH=C 1,3
   Zone Equipment Component,1,ZONEHVAC:ENERGYRECOVERYVENTILATOR,ALL_ST=SALES AREA_FL=BUILDING STORY 1_SCH=C 1 ERV DOAS,ALL_ST=SALES AREA_FL=BUILDING STORY 1_SCH=C 1,1,1
   Zone Equipment Component,2,ZONEHVAC:BASEBOARD:CONVECTIVE:WATER,ZONE HVAC BASEBOARD CONVECTIVE WATER 2,ALL_ST=SALES AREA_FL=BUILDING STORY 1_SCH=C 1,2,2
   Zone Equipment Component,3,ZONEHVAC:AIRDISTRIBUTIONUNIT,ADU ALL_ST=SALES AREA_FL=BUILDING STORY 1_SCH=C 1 VAV TERMINAL,ALL_ST=SALES AREA_FL=BUILDING STORY 1_SCH=C 1,3,3
 Zone Equipment List,3,ALL_ST=SALES AREA_FL=BUILDING STORY 1_SCH=C 2 EQUIPMENT LIST,ALL_ST=SALES AREA_FL=BUILDING STORY 1_SCH=C 2,3
   Zone Equipment Component,1,ZONEHVAC:ENERGYRECOVERYVENTILATOR,ALL_ST=SALES AREA_FL=BUILDING STORY 1_SCH=C 2 ERV DOAS,ALL_ST=SALES AREA_FL=BUILDING STORY 1_SCH=C 2,1,1
   Zone Equipment Component,2,ZONEHVAC:BASEBOARD:CONVECTIVE:WATER,ZONE HVAC BASEBOARD CONVECTIVE WATER 3,ALL_ST=SALES AREA_FL=BUILDING STORY 1_SCH=C 2,2,2
   Zone Equipment Component,3,ZONEHVAC:AIRDISTRIBUTIONUNIT,ADU ALL_ST=SALES AREA_FL=BUILDING STORY 1_SCH=C 2 VAV TERMINAL,ALL_ST=SALES AREA_FL=BUILDING STORY 1_SCH=C 2,3,3
! ===============================================================
! <#AirLoopHVACs>,<Number of AirLoopHVACs>
 #AirLoopHVACs,3
! <AirLoopHVAC>,<Air Loop Name>,<# Return Nodes>,<# Supply Nodes>,<# Zones Cooled>,<# Zones Heated>,<Outdoor Air Used>
! <AirLoop Return Connections>,<Connection Count>,<AirLoopHVAC Name>,<Zn Eqp Return Node #>,<Zn Eqp Return Node Name>,<AirLoop Return Node #>,<Air Loop Return Node Name>
! <AirLoop Supply Connections>,<Connection Count>,<AirLoopHVAC Name>,<Zn Eqp Supply Node #>,<Zn Eqp Supply Node Name>,<AirLoop Supply Node #>,<Air Loop Supply Node Name>
! <Cooled Zone Info>,<Cooled Zone Count>,<Cooled Zone Name>,<Cooled Zone Inlet Node #>,<Cooled Zone Inlet Node Name>,<AirLoopHVAC Name>
! <Heated Zone Info>,<Heated Zone Count>,<Heated Zone Name>,<Heated Zone Inlet Node #>,<Heated Zone Inlet Node Name>,<AirLoopHVAC Name>
! <Outdoor Air Connections>,<OA Inlet Node #>,<OA Return Air Inlet Node Name>,<OA Outlet Node #>,<OA Mixed Air Outlet Node Name>,<AirLoopHVAC Name>
! <AirLoopHVAC Connector>,<Connector Type>,<Connector Name>,<Loop Name>,<Loop Type>,<Number of Inlets/Outlets>
! <AirLoopHVAC Connector Branches>,<Connector Node Count>,<Connector Type>,<Connector Name>,<Inlet Branch>,<Outlet Branch>,<Loop Name>,<Loop Type>
! <AirLoopHVAC Connector Nodes>,<Connector Node Count>,<Connector Type>,<Connector Name>,<Inlet Node>,<Outlet Node>,<Loop Name>,<Loop Type>
 AirLoopHVAC,SYS_3_PSZ ALL_ST=SALES AREA_FL=BUILDING STORY 1_SCH=C,1,1,1,0,Yes
   AirLoop Return Connections,1,SYS_3_PSZ ALL_ST=SALES AREA_FL=BUILDING STORY 1_SCH=C,94,NODE 20,18,NODE 17
   AirLoop Supply Connections,1,SYS_3_PSZ ALL_ST=SALES AREA_FL=BUILDING STORY 1_SCH=C,13,NODE 19,12,NODE 18
   Cooled Zone Info,1,ALL_ST=SALES AREA_FL=BUILDING STORY 1_SCH=C,1,NODE 21,SYS_3_PSZ ALL_ST=SALES AREA_FL=BUILDING STORY 1_SCH=C
   Outdoor Air Connections,18,NODE 17,19,NODE 26,SYS_3_PSZ ALL_ST=SALES AREA_FL=BUILDING STORY 1_SCH=C
 AirLoopHVAC,SYS_3_PSZ ALL_ST=SALES AREA_FL=BUILDING STORY 1_SCH=C 1,1,1,1,0,Yes
   AirLoop Return Connections,1,SYS_3_PSZ ALL_ST=SALES AREA_FL=BUILDING STORY 1_SCH=C 1,95,NODE 32,22,NODE 29
   AirLoop Supply Connections,1,SYS_3_PSZ ALL_ST=SALES AREA_FL=BUILDING STORY 1_SCH=C 1,15,NODE 31,14,NODE 30
   Cooled Zone Info,1,ALL_ST=SALES AREA_FL=BUILDING STORY 1_SCH=C 1,6,NODE 33,SYS_3_PSZ ALL_ST=SALES AREA_FL=BUILDING STORY 1_SCH=C 1
   Outdoor Air Connections,22,NODE 29,23,NODE 38,SYS_3_PSZ ALL_ST=SALES AREA_FL=BUILDING STORY 1_SCH=C 1
 AirLoopHVAC,SYS_3_PSZ ALL_ST=SALES AREA_FL=BUILDING STORY 1_SCH=C 2,1,1,1,0,Yes
   AirLoop Return Connections,1,SYS_3_PSZ ALL_ST=SALES AREA_FL=BUILDING STORY 1_SCH=C 2,96,NODE 45,26,NODE 42
   AirLoop Supply Connections,1,SYS_3_PSZ ALL_ST=SALES AREA_FL=BUILDING STORY 1_SCH=C 2,17,NODE 44,16,NODE 43
   Cooled Zone Info,1,ALL_ST=SALES AREA_FL=BUILDING STORY 1_SCH=C 2,9,NODE 46,SYS_3_PSZ ALL_ST=SALES AREA_FL=BUILDING STORY 1_SCH=C 2
   Outdoor Air Connections,26,NODE 42,27,NODE 51,SYS_3_PSZ ALL_ST=SALES AREA_FL=BUILDING STORY 1_SCH=C 2
! ===============================================================
! <#Parent Node Connections>,<Number of Parent Node Connections>
 #Parent Node Connections,131
! <Parent Node Connection>,<Node Name>,<Node ObjectType>,<Node ObjectName>,<Node ConnectionType>,<Node FluidStream>
 Parent Node Connection,NODE 17,BRANCH,SYS_3_PSZ ALL_ST=SALES AREA_FL=BUILDING STORY 1_SCH=C MAIN BRANCH,Inlet,1
 Parent Node Connection,NODE 26,BRANCH,SYS_3_PSZ ALL_ST=SALES AREA_FL=BUILDING STORY 1_SCH=C MAIN BRANCH,Internal,1
 Parent Node Connection,NODE 25,BRANCH,SYS_3_PSZ ALL_ST=SALES AREA_FL=BUILDING STORY 1_SCH=C MAIN BRANCH,Internal,1
 Parent Node Connection,NODE 99,BRANCH,SYS_3_PSZ ALL_ST=SALES AREA_FL=BUILDING STORY 1_SCH=C MAIN BRANCH,Internal,1
 Parent Node Connection,NODE 18,BRANCH,SYS_3_PSZ ALL_ST=SALES AREA_FL=BUILDING STORY 1_SCH=C MAIN BRANCH,Outlet,1
 Parent Node Connection,NODE 29,BRANCH,SYS_3_PSZ ALL_ST=SALES AREA_FL=BUILDING STORY 1_SCH=C 1 MAIN BRANCH,Inlet,1
 Parent Node Connection,NODE 38,BRANCH,SYS_3_PSZ ALL_ST=SALES AREA_FL=BUILDING STORY 1_SCH=C 1 MAIN BRANCH,Internal,1
 Parent Node Connection,NODE 37,BRANCH,SYS_3_PSZ ALL_ST=SALES AREA_FL=BUILDING STORY 1_SCH=C 1 MAIN BRANCH,Internal,1
 Parent Node Connection,NODE 89,BRANCH,SYS_3_PSZ ALL_ST=SALES AREA_FL=BUILDING STORY 1_SCH=C 1 MAIN BRANCH,Internal,1
 Parent Node Connection,NODE 30,BRANCH,SYS_3_PSZ ALL_ST=SALES AREA_FL=BUILDING STORY 1_SCH=C 1 MAIN BRANCH,Outlet,1
 Parent Node Connection,NODE 42,BRANCH,SYS_3_PSZ ALL_ST=SALES AREA_FL=BUILDING STORY 1_SCH=C 2 MAIN BRANCH,Inlet,1
 Parent Node Connection,NODE 51,BRANCH,SYS_3_PSZ ALL_ST=SALES AREA_FL=BUILDING STORY 1_SCH=C 2 MAIN BRANCH,Internal,1
 Parent Node Connection,NODE 50,BRANCH,SYS_3_PSZ ALL_ST=SALES AREA_FL=BUILDING STORY 1_SCH=C 2 MAIN BRANCH,Internal,1
 Parent Node Connection,NODE 97,BRANCH,SYS_3_PSZ ALL_ST=SALES AREA_FL=BUILDING STORY 1_SCH=C 2 MAIN BRANCH,Internal,1
 Parent Node Connection,NODE 43,BRANCH,SYS_3_PSZ ALL_ST=SALES AREA_FL=BUILDING STORY 1_SCH=C 2 MAIN BRANCH,Outlet,1
 Parent Node Connection,NODE 2,BRANCH,HOT WATER LOOP SUPPLY INLET BRANCH,Inlet,1
 Parent Node Connection,NODE 10,BRANCH,HOT WATER LOOP SUPPLY INLET BRANCH,Outlet,1
 Parent Node Connection,NODE 5,BRANCH,HOT WATER LOOP SUPPLY BRANCH 1,Inlet,1
 Parent Node Connection,NODE 11,BRANCH,HOT WATER LOOP SUPPLY BRANCH 1,Outlet,1
 Parent Node Connection,NODE 12,BRANCH,HOT WATER LOOP SUPPLY BRANCH 2,Inlet,1
 Parent Node Connection,NODE 13,BRANCH,HOT WATER LOOP SUPPLY BRANCH 2,Outlet,1
 Parent Node Connection,NODE 14,BRANCH,HOT WATER LOOP SUPPLY BRANCH 3,Inlet,1
 Parent Node Connection,NODE 15,BRANCH,HOT WATER LOOP SUPPLY BRANCH 3,Outlet,1
 Parent Node Connection,NODE 16,BRANCH,HOT WATER LOOP SUPPLY OUTLET BRANCH,Inlet,1
 Parent Node Connection,NODE 3,BRANCH,HOT WATER LOOP SUPPLY OUTLET BRANCH,Outlet,1
 Parent Node Connection,NODE 6,BRANCH,HOT WATER LOOP DEMAND INLET BRANCH,Inlet,1
 Parent Node Connection,HOT WATER LOOP DEMAND INLET PIPE NODE,BRANCH,HOT WATER LOOP DEMAND INLET BRANCH,Outlet,1
 Parent Node Connection,NODE 9,BRANCH,HOT WATER LOOP DEMAND BRANCH 1,Inlet,1
 Parent Node Connection,NODE 28,BRANCH,HOT WATER LOOP DEMAND BRANCH 1,Outlet,1
 Parent Node Connection,NODE 40,BRANCH,HOT WATER LOOP DEMAND BRANCH 2,Inlet,1
 Parent Node Connection,NODE 41,BRANCH,HOT WATER LOOP DEMAND BRANCH 2,Outlet,1
 Parent Node Connection,NODE 53,BRANCH,HOT WATER LOOP DEMAND BRANCH 3,Inlet,1
 Parent Node Connection,NODE 54,BRANCH,HOT WATER LOOP DEMAND BRANCH 3,Outlet,1
 Parent Node Connection,HOT WATER LOOP DEMAND BYPASS PIPE INLET NODE,BRANCH,HOT WATER LOOP DEMAND BYPASS BRANCH,Inlet,1
 Parent Node Connection,HOT WATER LOOP DEMAND BYPASS PIPE OUTLET NODE,BRANCH,HOT WATER LOOP DEMAND BYPASS BRANCH,Outlet,1
 Parent Node Connection,HOT WATER LOOP DEMAND OUTLET PIPE NODE,BRANCH,HOT WATER LOOP DEMAND OUTLET BRANCH,Inlet,1
 Parent Node Connection,NODE 8,BRANCH,HOT WATER LOOP DEMAND OUTLET BRANCH,Outlet,1
 Parent Node Connection,NODE 55,BRANCH,MAIN SERVICE WATER LOOP SUPPLY INLET BRANCH,Inlet,1
 Parent Node Connection,NODE 61,BRANCH,MAIN SERVICE WATER LOOP SUPPLY INLET BRANCH,Outlet,1
 Parent Node Connection,NODE 57,BRANCH,MAIN SERVICE WATER LOOP SUPPLY BRANCH 1,Inlet,1
 Parent Node Connection,NODE 62,BRANCH,MAIN SERVICE WATER LOOP SUPPLY BRANCH 1,Outlet,1
 Parent Node Connection,NODE 63,BRANCH,MAIN SERVICE WATER LOOP SUPPLY BRANCH 2,Inlet,1
 Parent Node Connection,NODE 64,BRANCH,MAIN SERVICE WATER LOOP SUPPLY BRANCH 2,Outlet,1
 Parent Node Connection,NODE 66,BRANCH,MAIN SERVICE WATER LOOP SUPPLY OUTLET BRANCH,Inlet,1
 Parent Node Connection,NODE 56,BRANCH,MAIN SERVICE WATER LOOP SUPPLY OUTLET BRANCH,Outlet,1
 Parent Node Connection,NODE 58,BRANCH,MAIN SERVICE WATER LOOP DEMAND INLET BRANCH,Inlet,1
 Parent Node Connection,NODE 67,BRANCH,MAIN SERVICE WATER LOOP DEMAND INLET BRANCH,Outlet,1
 Parent Node Connection,NODE 60,BRANCH,MAIN SERVICE WATER LOOP DEMAND BRANCH 1,Inlet,1
 Parent Node Connection,NODE 65,BRANCH,MAIN SERVICE WATER LOOP DEMAND BRANCH 1,Outlet,1
 Parent Node Connection,NODE 69,BRANCH,MAIN SERVICE WATER LOOP DEMAND BRANCH 2,Inlet,1
 Parent Node Connection,NODE 70,BRANCH,MAIN SERVICE WATER LOOP DEMAND BRANCH 2,Outlet,1
 Parent Node Connection,NODE 71,BRANCH,MAIN SERVICE WATER LOOP DEMAND BRANCH 3,Inlet,1
 Parent Node Connection,NODE 72,BRANCH,MAIN SERVICE WATER LOOP DEMAND BRANCH 3,Outlet,1
 Parent Node Connection,NODE 73,BRANCH,MAIN SERVICE WATER LOOP DEMAND BRANCH 4,Inlet,1
 Parent Node Connection,NODE 74,BRANCH,MAIN SERVICE WATER LOOP DEMAND BRANCH 4,Outlet,1
 Parent Node Connection,NODE 75,BRANCH,MAIN SERVICE WATER LOOP DEMAND BRANCH 5,Inlet,1
 Parent Node Connection,NODE 76,BRANCH,MAIN SERVICE WATER LOOP DEMAND BRANCH 5,Outlet,1
 Parent Node Connection,NODE 77,BRANCH,MAIN SERVICE WATER LOOP DEMAND BRANCH 6,Inlet,1
 Parent Node Connection,NODE 78,BRANCH,MAIN SERVICE WATER LOOP DEMAND BRANCH 6,Outlet,1
 Parent Node Connection,NODE 79,BRANCH,MAIN SERVICE WATER LOOP DEMAND BRANCH 7,Inlet,1
 Parent Node Connection,NODE 80,BRANCH,MAIN SERVICE WATER LOOP DEMAND BRANCH 7,Outlet,1
 Parent Node Connection,NODE 81,BRANCH,MAIN SERVICE WATER LOOP DEMAND BRANCH 8,Inlet,1
 Parent Node Connection,NODE 82,BRANCH,MAIN SERVICE WATER LOOP DEMAND BRANCH 8,Outlet,1
 Parent Node Connection,NODE 83,BRANCH,MAIN SERVICE WATER LOOP DEMAND BRANCH 9,Inlet,1
 Parent Node Connection,NODE 84,BRANCH,MAIN SERVICE WATER LOOP DEMAND BRANCH 9,Outlet,1
 Parent Node Connection,NODE 85,BRANCH,MAIN SERVICE WATER LOOP DEMAND BRANCH 10,Inlet,1
 Parent Node Connection,NODE 86,BRANCH,MAIN SERVICE WATER LOOP DEMAND BRANCH 10,Outlet,1
 Parent Node Connection,NODE 87,BRANCH,MAIN SERVICE WATER LOOP DEMAND BRANCH 11,Inlet,1
 Parent Node Connection,NODE 88,BRANCH,MAIN SERVICE WATER LOOP DEMAND BRANCH 11,Outlet,1
 Parent Node Connection,MAIN SERVICE WATER LOOP DEMAND BYPASS PIPE INLET NODE,BRANCH,MAIN SERVICE WATER LOOP DEMAND BYPASS BRANCH,Inlet,1
 Parent Node Connection,MAIN SERVICE WATER LOOP DEMAND BYPASS PIPE OUTLET NODE,BRANCH,MAIN SERVICE WATER LOOP DEMAND BYPASS BRANCH,Outlet,1
 Parent Node Connection,NODE 68,BRANCH,MAIN SERVICE WATER LOOP DEMAND OUTLET BRANCH,Inlet,1
 Parent Node Connection,NODE 59,BRANCH,MAIN SERVICE WATER LOOP DEMAND OUTLET BRANCH,Outlet,1
 Parent Node Connection,NODE 19,AIRLOOPHVAC:SUPPLYPATH,SYS_3_PSZ ALL_ST=SALES AREA_FL=BUILDING STORY 1_SCH=C NODE 19 SUPPLY PATH,Inlet,1
 Parent Node Connection,NODE 31,AIRLOOPHVAC:SUPPLYPATH,SYS_3_PSZ ALL_ST=SALES AREA_FL=BUILDING STORY 1_SCH=C 1 NODE 31 SUPPLY PATH,Inlet,1
 Parent Node Connection,NODE 44,AIRLOOPHVAC:SUPPLYPATH,SYS_3_PSZ ALL_ST=SALES AREA_FL=BUILDING STORY 1_SCH=C 2 NODE 44 SUPPLY PATH,Inlet,1
 Parent Node Connection,NODE 20,AIRLOOPHVAC:RETURNPATH,SYS_3_PSZ ALL_ST=SALES AREA_FL=BUILDING STORY 1_SCH=C RETURN PATH,Outlet,1
 Parent Node Connection,NODE 32,AIRLOOPHVAC:RETURNPATH,SYS_3_PSZ ALL_ST=SALES AREA_FL=BUILDING STORY 1_SCH=C 1 RETURN PATH,Outlet,1
 Parent Node Connection,NODE 45,AIRLOOPHVAC:RETURNPATH,SYS_3_PSZ ALL_ST=SALES AREA_FL=BUILDING STORY 1_SCH=C 2 RETURN PATH,Outlet,1
 Parent Node Connection,13GAL NATURALGAS WATER HEATER - 9KBTU/HR 0.82 THERM EFF ASHPWH TANK OUTLET - CONDENSER INLET,WATERHEATER:HEATPUMP:PUMPEDCONDENSER,13GAL NATURALGAS WATER HEATER - 9KBTU/HR 0.82 THERM EFF ASHPWH,Inlet,2
 Parent Node Connection,13GAL NATURALGAS WATER HEATER - 9KBTU/HR 0.82 THERM EFF ASHPWH CONDENSER OUTLET - TANK INLET,WATERHEATER:HEATPUMP:PUMPEDCONDENSER,13GAL NATURALGAS WATER HEATER - 9KBTU/HR 0.82 THERM EFF ASHPWH,Outlet,2
 Parent Node Connection,NODE 57,WATERHEATER:HEATPUMP:PUMPEDCONDENSER,13GAL NATURALGAS WATER HEATER - 9KBTU/HR 0.82 THERM EFF ASHPWH,Inlet,1
 Parent Node Connection,NODE 62,WATERHEATER:HEATPUMP:PUMPEDCONDENSER,13GAL NATURALGAS WATER HEATER - 9KBTU/HR 0.82 THERM EFF ASHPWH,Outlet,1
 Parent Node Connection,13GAL NATURALGAS WATER HEATER - 9KBTU/HR 0.82 THERM EFF ASHPWH OUTDOOR AIR,WATERHEATER:HEATPUMP:PUMPEDCONDENSER,13GAL NATURALGAS WATER HEATER - 9KBTU/HR 0.82 THERM EFF ASHPWH,OutsideAirReference,1
 Parent Node Connection,13GAL NATURALGAS WATER HEATER - 9KBTU/HR 0.82 THERM EFF ASHPWH EXHAUST AIR,WATERHEATER:HEATPUMP:PUMPEDCONDENSER,13GAL NATURALGAS WATER HEATER - 9KBTU/HR 0.82 THERM EFF ASHPWH,ReliefAir,1
 Parent Node Connection,NODE 2,PLANTLOOP,HOT WATER LOOP,Inlet,1
 Parent Node Connection,NODE 3,PLANTLOOP,HOT WATER LOOP,Outlet,1
 Parent Node Connection,NODE 6,PLANTLOOP,HOT WATER LOOP,Inlet,1
 Parent Node Connection,NODE 8,PLANTLOOP,HOT WATER LOOP,Outlet,1
 Parent Node Connection,NODE 3,PLANTLOOP,HOT WATER LOOP,Sensor,1
 Parent Node Connection,NODE 55,PLANTLOOP,MAIN SERVICE WATER LOOP,Inlet,1
 Parent Node Connection,NODE 56,PLANTLOOP,MAIN SERVICE WATER LOOP,Outlet,1
 Parent Node Connection,NODE 58,PLANTLOOP,MAIN SERVICE WATER LOOP,Inlet,1
 Parent Node Connection,NODE 59,PLANTLOOP,MAIN SERVICE WATER LOOP,Outlet,1
 Parent Node Connection,NODE 56,PLANTLOOP,MAIN SERVICE WATER LOOP,Sensor,1
 Parent Node Connection,ALL_ST=SALES AREA_FL=BUILDING STORY 1_SCH=C ERV DOAS OA NODE,ZONEHVAC:ENERGYRECOVERYVENTILATOR,ALL_ST=SALES AREA_FL=BUILDING STORY 1_SCH=C ERV DOAS,Inlet,1
 Parent Node Connection,NODE 106,ZONEHVAC:ENERGYRECOVERYVENTILATOR,ALL_ST=SALES AREA_FL=BUILDING STORY 1_SCH=C ERV DOAS,Outlet,1
 Parent Node Connection,NODE 105,ZONEHVAC:ENERGYRECOVERYVENTILATOR,ALL_ST=SALES AREA_FL=BUILDING STORY 1_SCH=C ERV DOAS,Inlet,2
 Parent Node Connection,ALL_ST=SALES AREA_FL=BUILDING STORY 1_SCH=C ERV DOAS EXHAUST FAN OUTLET NODE,ZONEHVAC:ENERGYRECOVERYVENTILATOR,ALL_ST=SALES AREA_FL=BUILDING STORY 1_SCH=C ERV DOAS,ReliefAir,2
 Parent Node Connection,ALL_ST=SALES AREA_FL=BUILDING STORY 1_SCH=C 1 ERV DOAS OA NODE,ZONEHVAC:ENERGYRECOVERYVENTILATOR,ALL_ST=SALES AREA_FL=BUILDING STORY 1_SCH=C 1 ERV DOAS,Inlet,1
 Parent Node Connection,NODE 102,ZONEHVAC:ENERGYRECOVERYVENTILATOR,ALL_ST=SALES AREA_FL=BUILDING STORY 1_SCH=C 1 ERV DOAS,Outlet,1
 Parent Node Connection,NODE 101,ZONEHVAC:ENERGYRECOVERYVENTILATOR,ALL_ST=SALES AREA_FL=BUILDING STORY 1_SCH=C 1 ERV DOAS,Inlet,2
 Parent Node Connection,ALL_ST=SALES AREA_FL=BUILDING STORY 1_SCH=C 1 ERV DOAS EXHAUST FAN OUTLET NODE,ZONEHVAC:ENERGYRECOVERYVENTILATOR,ALL_ST=SALES AREA_FL=BUILDING STORY 1_SCH=C 1 ERV DOAS,ReliefAir,2
 Parent Node Connection,ALL_ST=SALES AREA_FL=BUILDING STORY 1_SCH=C 2 ERV DOAS OA NODE,ZONEHVAC:ENERGYRECOVERYVENTILATOR,ALL_ST=SALES AREA_FL=BUILDING STORY 1_SCH=C 2 ERV DOAS,Inlet,1
 Parent Node Connection,NODE 104,ZONEHVAC:ENERGYRECOVERYVENTILATOR,ALL_ST=SALES AREA_FL=BUILDING STORY 1_SCH=C 2 ERV DOAS,Outlet,1
 Parent Node Connection,NODE 103,ZONEHVAC:ENERGYRECOVERYVENTILATOR,ALL_ST=SALES AREA_FL=BUILDING STORY 1_SCH=C 2 ERV DOAS,Inlet,2
 Parent Node Connection,ALL_ST=SALES AREA_FL=BUILDING STORY 1_SCH=C 2 ERV DOAS EXHAUST FAN OUTLET NODE,ZONEHVAC:ENERGYRECOVERYVENTILATOR,ALL_ST=SALES AREA_FL=BUILDING STORY 1_SCH=C 2 ERV DOAS,ReliefAir,2
 Parent Node Connection,NODE 21,ZONEHVAC:AIRDISTRIBUTIONUNIT,ADU ALL_ST=SALES AREA_FL=BUILDING STORY 1_SCH=C VAV TERMINAL,Outlet,1
 Parent Node Connection,NODE 33,ZONEHVAC:AIRDISTRIBUTIONUNIT,ADU ALL_ST=SALES AREA_FL=BUILDING STORY 1_SCH=C 1 VAV TERMINAL,Outlet,1
 Parent Node Connection,NODE 46,ZONEHVAC:AIRDISTRIBUTIONUNIT,ADU ALL_ST=SALES AREA_FL=BUILDING STORY 1_SCH=C 2 VAV TERMINAL,Outlet,1
 Parent Node Connection,NODE 17,AIRLOOPHVAC,SYS_3_PSZ ALL_ST=SALES AREA_FL=BUILDING STORY 1_SCH=C,Inlet,1
 Parent Node Connection,NODE 20,AIRLOOPHVAC,SYS_3_PSZ ALL_ST=SALES AREA_FL=BUILDING STORY 1_SCH=C,Outlet,1
 Parent Node Connection,NODE 19,AIRLOOPHVAC,SYS_3_PSZ ALL_ST=SALES AREA_FL=BUILDING STORY 1_SCH=C,Inlet,1
 Parent Node Connection,NODE 18,AIRLOOPHVAC,SYS_3_PSZ ALL_ST=SALES AREA_FL=BUILDING STORY 1_SCH=C,Outlet,1
 Parent Node Connection,NODE 29,AIRLOOPHVAC,SYS_3_PSZ ALL_ST=SALES AREA_FL=BUILDING STORY 1_SCH=C 1,Inlet,1
 Parent Node Connection,NODE 32,AIRLOOPHVAC,SYS_3_PSZ ALL_ST=SALES AREA_FL=BUILDING STORY 1_SCH=C 1,Outlet,1
 Parent Node Connection,NODE 31,AIRLOOPHVAC,SYS_3_PSZ ALL_ST=SALES AREA_FL=BUILDING STORY 1_SCH=C 1,Inlet,1
 Parent Node Connection,NODE 30,AIRLOOPHVAC,SYS_3_PSZ ALL_ST=SALES AREA_FL=BUILDING STORY 1_SCH=C 1,Outlet,1
 Parent Node Connection,NODE 42,AIRLOOPHVAC,SYS_3_PSZ ALL_ST=SALES AREA_FL=BUILDING STORY 1_SCH=C 2,Inlet,1
 Parent Node Connection,NODE 45,AIRLOOPHVAC,SYS_3_PSZ ALL_ST=SALES AREA_FL=BUILDING STORY 1_SCH=C 2,Outlet,1
 Parent Node Connection,NODE 44,AIRLOOPHVAC,SYS_3_PSZ ALL_ST=SALES AREA_FL=BUILDING STORY 1_SCH=C 2,Inlet,1
 Parent Node Connection,NODE 43,AIRLOOPHVAC,SYS_3_PSZ ALL_ST=SALES AREA_FL=BUILDING STORY 1_SCH=C 2,Outlet,1
 Parent Node Connection,NODE 26,COILSYSTEM:COOLING:DX,COIL COOLING DX SINGLE SPEED 1 462KBTU/HR 8.21EER COILSYSTEM,Inlet,1
 Parent Node Connection,NODE 25,COILSYSTEM:COOLING:DX,COIL COOLING DX SINGLE SPEED 1 462KBTU/HR 8.21EER COILSYSTEM,Outlet,1
 Parent Node Connection,NODE 25,COILSYSTEM:COOLING:DX,COIL COOLING DX SINGLE SPEED 1 462KBTU/HR 8.21EER COILSYSTEM,Sensor,1
 Parent Node Connection,NODE 38,COILSYSTEM:COOLING:DX,COIL COOLING DX SINGLE SPEED 2 91KBTU/HR 9.26EER COILSYSTEM,Inlet,1
 Parent Node Connection,NODE 37,COILSYSTEM:COOLING:DX,COIL COOLING DX SINGLE SPEED 2 91KBTU/HR 9.26EER COILSYSTEM,Outlet,1
 Parent Node Connection,NODE 37,COILSYSTEM:COOLING:DX,COIL COOLING DX SINGLE SPEED 2 91KBTU/HR 9.26EER COILSYSTEM,Sensor,1
 Parent Node Connection,NODE 51,COILSYSTEM:COOLING:DX,COIL COOLING DX SINGLE SPEED 3 147KBTU/HR 9.08EER COILSYSTEM,Inlet,1
 Parent Node Connection,NODE 50,COILSYSTEM:COOLING:DX,COIL COOLING DX SINGLE SPEED 3 147KBTU/HR 9.08EER COILSYSTEM,Outlet,1
 Parent Node Connection,NODE 50,COILSYSTEM:COOLING:DX,COIL COOLING DX SINGLE SPEED 3 147KBTU/HR 9.08EER COILSYSTEM,Sensor,1
! ===============================================================
! <#Non-Parent Node Connections>,<Number of Non-Parent Node Connections>
 #Non-Parent Node Connections,288
! <Non-Parent Node Connection>,<Node Name>,<Node ObjectType>,<Node ObjectName>,<Node ConnectionType>,<Node FluidStream>
 Non-Parent Node Connection,NODE 1,ZONEHVAC:EQUIPMENTCONNECTIONS,ALL_ST=SALES AREA_FL=BUILDING STORY 1_SCH=C,ZoneNode,1
 Non-Parent Node Connection,NODE 21,ZONEHVAC:EQUIPMENTCONNECTIONS,ALL_ST=SALES AREA_FL=BUILDING STORY 1_SCH=C,ZoneInlet,1
 Non-Parent Node Connection,NODE 106,ZONEHVAC:EQUIPMENTCONNECTIONS,ALL_ST=SALES AREA_FL=BUILDING STORY 1_SCH=C,ZoneInlet,1
 Non-Parent Node Connection,NODE 108,ZONEHVAC:EQUIPMENTCONNECTIONS,ALL_ST=SALES AREA_FL=BUILDING STORY 1_SCH=C,ZoneInlet,1
 Non-Parent Node Connection,NODE 105,ZONEHVAC:EQUIPMENTCONNECTIONS,ALL_ST=SALES AREA_FL=BUILDING STORY 1_SCH=C,ZoneExhaust,1
 Non-Parent Node Connection,NODE 107,ZONEHVAC:EQUIPMENTCONNECTIONS,ALL_ST=SALES AREA_FL=BUILDING STORY 1_SCH=C,ZoneExhaust,1
 Non-Parent Node Connection,NODE 27,ZONEHVAC:EQUIPMENTCONNECTIONS,ALL_ST=SALES AREA_FL=BUILDING STORY 1_SCH=C,ZoneReturn,1
 Non-Parent Node Connection,NODE 4,ZONEHVAC:EQUIPMENTCONNECTIONS,ALL_ST=SALES AREA_FL=BUILDING STORY 1_SCH=C 1,ZoneNode,1
 Non-Parent Node Connection,NODE 33,ZONEHVAC:EQUIPMENTCONNECTIONS,ALL_ST=SALES AREA_FL=BUILDING STORY 1_SCH=C 1,ZoneInlet,1
 Non-Parent Node Connection,NODE 102,ZONEHVAC:EQUIPMENTCONNECTIONS,ALL_ST=SALES AREA_FL=BUILDING STORY 1_SCH=C 1,ZoneInlet,1
 Non-Parent Node Connection,NODE 101,ZONEHVAC:EQUIPMENTCONNECTIONS,ALL_ST=SALES AREA_FL=BUILDING STORY 1_SCH=C 1,ZoneExhaust,1
 Non-Parent Node Connection,NODE 39,ZONEHVAC:EQUIPMENTCONNECTIONS,ALL_ST=SALES AREA_FL=BUILDING STORY 1_SCH=C 1,ZoneReturn,1
 Non-Parent Node Connection,NODE 7,ZONEHVAC:EQUIPMENTCONNECTIONS,ALL_ST=SALES AREA_FL=BUILDING STORY 1_SCH=C 2,ZoneNode,1
 Non-Parent Node Connection,NODE 46,ZONEHVAC:EQUIPMENTCONNECTIONS,ALL_ST=SALES AREA_FL=BUILDING STORY 1_SCH=C 2,ZoneInlet,1
 Non-Parent Node Connection,NODE 104,ZONEHVAC:EQUIPMENTCONNECTIONS,ALL_ST=SALES AREA_FL=BUILDING STORY 1_SCH=C 2,ZoneInlet,1
 Non-Parent Node Connection,NODE 103,ZONEHVAC:EQUIPMENTCONNECTIONS,ALL_ST=SALES AREA_FL=BUILDING STORY 1_SCH=C 2,ZoneExhaust,1
 Non-Parent Node Connection,NODE 52,ZONEHVAC:EQUIPMENTCONNECTIONS,ALL_ST=SALES AREA_FL=BUILDING STORY 1_SCH=C 2,ZoneReturn,1
 Non-Parent Node Connection,NODE 26,COIL:COOLING:DX:SINGLESPEED,COIL COOLING DX SINGLE SPEED 1 462KBTU/HR 8.21EER,Inlet,1
 Non-Parent Node Connection,NODE 25,COIL:COOLING:DX:SINGLESPEED,COIL COOLING DX SINGLE SPEED 1 462KBTU/HR 8.21EER,Outlet,1
 Non-Parent Node Connection,NODE 38,COIL:COOLING:DX:SINGLESPEED,COIL COOLING DX SINGLE SPEED 2 91KBTU/HR 9.26EER,Inlet,1
 Non-Parent Node Connection,NODE 37,COIL:COOLING:DX:SINGLESPEED,COIL COOLING DX SINGLE SPEED 2 91KBTU/HR 9.26EER,Outlet,1
 Non-Parent Node Connection,NODE 51,COIL:COOLING:DX:SINGLESPEED,COIL COOLING DX SINGLE SPEED 3 147KBTU/HR 9.08EER,Inlet,1
 Non-Parent Node Connection,NODE 50,COIL:COOLING:DX:SINGLESPEED,COIL COOLING DX SINGLE SPEED 3 147KBTU/HR 9.08EER,Outlet,1
 Non-Parent Node Connection,13GAL NATURALGAS WATER HEATER - 9KBTU/HR 0.82 THERM EFF ASHPWH MIXER OUTLET - EVAP INLET,COIL:WATERHEATING:AIRTOWATERHEATPUMP:PUMPED,COIL WATER HEATING AIR TO WATER HEAT PUMP 1,Inlet,1
 Non-Parent Node Connection,13GAL NATURALGAS WATER HEATER - 9KBTU/HR 0.82 THERM EFF ASHPWH EVAP OUTLET - FAN INLET,COIL:WATERHEATING:AIRTOWATERHEATPUMP:PUMPED,COIL WATER HEATING AIR TO WATER HEAT PUMP 1,Outlet,1
 Non-Parent Node Connection,ALL_ST=SALES AREA_FL=BUILDING STORY 1_SCH=C ERV DOAS OA NODE,OUTDOORAIR:NODELIST,OutdoorAir:NodeList,OutdoorAir,1
 Non-Parent Node Connection,ALL_ST=SALES AREA_FL=BUILDING STORY 1_SCH=C 1 ERV DOAS OA NODE,OUTDOORAIR:NODELIST,OutdoorAir:NodeList,OutdoorAir,2
 Non-Parent Node Connection,ALL_ST=SALES AREA_FL=BUILDING STORY 1_SCH=C 2 ERV DOAS OA NODE,OUTDOORAIR:NODELIST,OutdoorAir:NodeList,OutdoorAir,3
 Non-Parent Node Connection,NODE 22,OUTDOORAIR:NODELIST,OutdoorAir:NodeList,OutdoorAir,4
 Non-Parent Node Connection,NODE 34,OUTDOORAIR:NODELIST,OutdoorAir:NodeList,OutdoorAir,5
 Non-Parent Node Connection,NODE 47,OUTDOORAIR:NODELIST,OutdoorAir:NodeList,OutdoorAir,6
 Non-Parent Node Connection,MODEL OUTDOOR AIR NODE,OUTDOORAIR:NODE,OutdoorAir:Node,OutdoorAir,7
 Non-Parent Node Connection,13GAL NATURALGAS WATER HEATER - 9KBTU/HR 0.82 THERM EFF ASHPWH TANK OUTLET - CONDENSER INLET,COIL:WATERHEATING:AIRTOWATERHEATPUMP:PUMPED,COIL WATER HEATING AIR TO WATER HEAT PUMP 1,Inlet,2
 Non-Parent Node Connection,13GAL NATURALGAS WATER HEATER - 9KBTU/HR 0.82 THERM EFF ASHPWH CONDENSER OUTLET - TANK INLET,COIL:WATERHEATING:AIRTOWATERHEATPUMP:PUMPED,COIL WATER HEATING AIR TO WATER HEAT PUMP 1,Outlet,2
 Non-Parent Node Connection,NODE 99,FAN:VARIABLEVOLUME,FAN VARIABLE VOLUME 3,Inlet,1
 Non-Parent Node Connection,NODE 18,FAN:VARIABLEVOLUME,FAN VARIABLE VOLUME 3,Outlet,1
 Non-Parent Node Connection,NODE 89,FAN:VARIABLEVOLUME,FAN VARIABLE VOLUME 1,Inlet,1
 Non-Parent Node Connection,NODE 30,FAN:VARIABLEVOLUME,FAN VARIABLE VOLUME 1,Outlet,1
 Non-Parent Node Connection,NODE 97,FAN:VARIABLEVOLUME,FAN VARIABLE VOLUME 2,Inlet,1
 Non-Parent Node Connection,NODE 43,FAN:VARIABLEVOLUME,FAN VARIABLE VOLUME 2,Outlet,1
 Non-Parent Node Connection,13GAL NATURALGAS WATER HEATER - 9KBTU/HR 0.82 THERM EFF ASHPWH EVAP OUTLET - FAN INLET,FAN:ONOFF,FAN ON OFF 1,Inlet,1
 Non-Parent Node Connection,13GAL NATURALGAS WATER HEATER - 9KBTU/HR 0.82 THERM EFF ASHPWH FAN OUTLET - SPLITTER INLET,FAN:ONOFF,FAN ON OFF 1,Outlet,1
 Non-Parent Node Connection,ALL_ST=SALES AREA_FL=BUILDING STORY 1_SCH=C ERV DOAS SUPPLY FAN INLET NODE,FAN:ONOFF,ALL_ST=SALES AREA_FL=BUILDING STORY 1_SCH=C ERV SUP FAN,Inlet,1
 Non-Parent Node Connection,NODE 106,FAN:ONOFF,ALL_ST=SALES AREA_FL=BUILDING STORY 1_SCH=C ERV SUP FAN,Outlet,1
 Non-Parent Node Connection,ALL_ST=SALES AREA_FL=BUILDING STORY 1_SCH=C ERV DOAS EXHAUST FAN INLET NODE,FAN:ONOFF,ALL_ST=SALES AREA_FL=BUILDING STORY 1_SCH=C ERV EXH FAN,Inlet,1
 Non-Parent Node Connection,ALL_ST=SALES AREA_FL=BUILDING STORY 1_SCH=C ERV DOAS EXHAUST FAN OUTLET NODE,FAN:ONOFF,ALL_ST=SALES AREA_FL=BUILDING STORY 1_SCH=C ERV EXH FAN,Outlet,1
 Non-Parent Node Connection,ALL_ST=SALES AREA_FL=BUILDING STORY 1_SCH=C 1 ERV DOAS SUPPLY FAN INLET NODE,FAN:ONOFF,ALL_ST=SALES AREA_FL=BUILDING STORY 1_SCH=C 1 ERV SUP FAN,Inlet,1
 Non-Parent Node Connection,NODE 102,FAN:ONOFF,ALL_ST=SALES AREA_FL=BUILDING STORY 1_SCH=C 1 ERV SUP FAN,Outlet,1
 Non-Parent Node Connection,ALL_ST=SALES AREA_FL=BUILDING STORY 1_SCH=C 1 ERV DOAS EXHAUST FAN INLET NODE,FAN:ONOFF,ALL_ST=SALES AREA_FL=BUILDING STORY 1_SCH=C 1 ERV EXH FAN,Inlet,1
 Non-Parent Node Connection,ALL_ST=SALES AREA_FL=BUILDING STORY 1_SCH=C 1 ERV DOAS EXHAUST FAN OUTLET NODE,FAN:ONOFF,ALL_ST=SALES AREA_FL=BUILDING STORY 1_SCH=C 1 ERV EXH FAN,Outlet,1
 Non-Parent Node Connection,ALL_ST=SALES AREA_FL=BUILDING STORY 1_SCH=C 2 ERV DOAS SUPPLY FAN INLET NODE,FAN:ONOFF,ALL_ST=SALES AREA_FL=BUILDING STORY 1_SCH=C 2 ERV SUP FAN,Inlet,1
 Non-Parent Node Connection,NODE 104,FAN:ONOFF,ALL_ST=SALES AREA_FL=BUILDING STORY 1_SCH=C 2 ERV SUP FAN,Outlet,1
 Non-Parent Node Connection,ALL_ST=SALES AREA_FL=BUILDING STORY 1_SCH=C 2 ERV DOAS EXHAUST FAN INLET NODE,FAN:ONOFF,ALL_ST=SALES AREA_FL=BUILDING STORY 1_SCH=C 2 ERV EXH FAN,Inlet,1
 Non-Parent Node Connection,ALL_ST=SALES AREA_FL=BUILDING STORY 1_SCH=C 2 ERV DOAS EXHAUST FAN OUTLET NODE,FAN:ONOFF,ALL_ST=SALES AREA_FL=BUILDING STORY 1_SCH=C 2 ERV EXH FAN,Outlet,1
 Non-Parent Node Connection,13GAL NATURALGAS WATER HEATER - 9KBTU/HR 0.82 THERM EFF ASHPWH MIXER OUTLET - EVAP INLET,WATERHEATER:HEATPUMP:PUMPEDCONDENSER INLET AIR MIXER,13GAL NATURALGAS WATER HEATER - 9KBTU/HR 0.82 THERM EFF ASHPWH,Outlet,1
 Non-Parent Node Connection,13GAL NATURALGAS WATER HEATER - 9KBTU/HR 0.82 THERM EFF ASHPWH FAN OUTLET - SPLITTER INLET,WATERHEATER:HEATPUMP:PUMPEDCONDENSER-OUTLET AIR SPLITTER,13GAL NATURALGAS WATER HEATER - 9KBTU/HR 0.82 THERM EFF ASHPWH,Inlet,1
 Non-Parent Node Connection,NODE 107,WATERHEATER:HEATPUMP:PUMPEDCONDENSER-INLET AIR MIXER,13GAL NATURALGAS WATER HEATER - 9KBTU/HR 0.82 THERM EFF ASHPWH,Inlet,1
 Non-Parent Node Connection,NODE 108,WATERHEATER:HEATPUMP:PUMPEDCONDENSER-OUTLET AIR SPLITTER,13GAL NATURALGAS WATER HEATER - 9KBTU/HR 0.82 THERM EFF ASHPWH,Outlet,1
 Non-Parent Node Connection,13GAL NATURALGAS WATER HEATER - 9KBTU/HR 0.82 THERM EFF ASHPWH OUTDOOR AIR,OUTDOORAIR:NODE,OutdoorAir:Node,OutdoorAir,8
 Non-Parent Node Connection,NODE 57,WATERHEATER:MIXED,13GAL NATURALGAS WATER HEATER - 9KBTU/HR 0.82 THERM EFF,Inlet,1
 Non-Parent Node Connection,NODE 62,WATERHEATER:MIXED,13GAL NATURALGAS WATER HEATER - 9KBTU/HR 0.82 THERM EFF,Outlet,1
 Non-Parent Node Connection,13GAL NATURALGAS WATER HEATER - 9KBTU/HR 0.82 THERM EFF ASHPWH CONDENSER OUTLET - TANK INLET,WATERHEATER:MIXED,13GAL NATURALGAS WATER HEATER - 9KBTU/HR 0.82 THERM EFF,Inlet,2
 Non-Parent Node Connection,13GAL NATURALGAS WATER HEATER - 9KBTU/HR 0.82 THERM EFF ASHPWH TANK OUTLET - CONDENSER INLET,WATERHEATER:MIXED,13GAL NATURALGAS WATER HEATER - 9KBTU/HR 0.82 THERM EFF,Outlet,2
 Non-Parent Node Connection,NODE 56,SETPOINTMANAGER:SCHEDULED,SERVICE HOT WATER SETPOINT MANAGER,Setpoint,1
 Non-Parent Node Connection,NODE 3,SETPOINTMANAGER:OUTDOORAIRRESET,SETPOINT MANAGER OUTDOOR AIR RESET 1,Setpoint,1
[...]
 Non-Parent Node Connection,NODE 18,SETPOINTMANAGER:WARMEST,NODE 18 SAT STPMANAGER,Setpoint,1
 Non-Parent Node Connection,NODE 30,SETPOINTMANAGER:WARMEST,NODE 30 SAT STPMANAGER,Setpoint,1
 Non-Parent Node Connection,NODE 43,SETPOINTMANAGER:WARMEST,NODE 43 SAT STPMANAGER,Setpoint,1
 Non-Parent Node Connection,NODE 14,PIPE:ADIABATIC,PIPE ADIABATIC 1,Inlet,1
 Non-Parent Node Connection,NODE 15,PIPE:ADIABATIC,PIPE ADIABATIC 1,Outlet,1
 Non-Parent Node Connection,NODE 16,PIPE:ADIABATIC,PIPE ADIABATIC 2,Inlet,1
 Non-Parent Node Connection,NODE 3,PIPE:ADIABATIC,PIPE ADIABATIC 2,Outlet,1
 Non-Parent Node Connection,NODE 6,PIPE:ADIABATIC,HOT WATER LOOP DEMAND INLET PIPE,Inlet,1
 Non-Parent Node Connection,HOT WATER LOOP DEMAND INLET PIPE NODE,PIPE:ADIABATIC,HOT WATER LOOP DEMAND INLET PIPE,Outlet,1
 Non-Parent Node Connection,HOT WATER LOOP DEMAND BYPASS PIPE INLET NODE,PIPE:ADIABATIC,HOT WATER LOOP DEMAND BYPASS PIPE,Inlet,1
 Non-Parent Node Connection,HOT WATER LOOP DEMAND BYPASS PIPE OUTLET NODE,PIPE:ADIABATIC,HOT WATER LOOP DEMAND BYPASS PIPE,Outlet,1
 Non-Parent Node Connection,HOT WATER LOOP DEMAND OUTLET PIPE NODE,PIPE:ADIABATIC,HOT WATER LOOP DEMAND OUTLET PIPE,Inlet,1
 Non-Parent Node Connection,NODE 8,PIPE:ADIABATIC,HOT WATER LOOP DEMAND OUTLET PIPE,Outlet,1
 Non-Parent Node Connection,NODE 63,PIPE:ADIABATIC,PIPE ADIABATIC 3,Inlet,1
 Non-Parent Node Connection,NODE 64,PIPE:ADIABATIC,PIPE ADIABATIC 3,Outlet,1
 Non-Parent Node Connection,NODE 66,PIPE:ADIABATIC,PIPE ADIABATIC 5,Inlet,1
 Non-Parent Node Connection,NODE 56,PIPE:ADIABATIC,PIPE ADIABATIC 5,Outlet,1
 Non-Parent Node Connection,NODE 58,PIPE:ADIABATIC,PIPE ADIABATIC 6,Inlet,1
 Non-Parent Node Connection,NODE 67,PIPE:ADIABATIC,PIPE ADIABATIC 6,Outlet,1
 Non-Parent Node Connection,NODE 60,PIPE:ADIABATIC,PIPE ADIABATIC 4,Inlet,1
 Non-Parent Node Connection,NODE 65,PIPE:ADIABATIC,PIPE ADIABATIC 4,Outlet,1
 Non-Parent Node Connection,MAIN SERVICE WATER LOOP DEMAND BYPASS PIPE INLET NODE,PIPE:ADIABATIC,MAIN SERVICE WATER LOOP DEMAND BYPASS PIPE,Inlet,1
 Non-Parent Node Connection,MAIN SERVICE WATER LOOP DEMAND BYPASS PIPE OUTLET NODE,PIPE:ADIABATIC,MAIN SERVICE WATER LOOP DEMAND BYPASS PIPE,Outlet,1
 Non-Parent Node Connection,NODE 68,PIPE:ADIABATIC,PIPE ADIABATIC 7,Inlet,1
 Non-Parent Node Connection,NODE 59,PIPE:ADIABATIC,PIPE ADIABATIC 7,Outlet,1
 Non-Parent Node Connection,HOT WATER LOOP DEMAND INLET PIPE NODE,CONNECTOR:SPLITTER,HOT WATER LOOP DEMAND SPLITTER,Inlet,1
 Non-Parent Node Connection,NODE 9,CONNECTOR:SPLITTER,HOT WATER LOOP DEMAND SPLITTER,Outlet,1
 Non-Parent Node Connection,NODE 40,CONNECTOR:SPLITTER,HOT WATER LOOP DEMAND SPLITTER,Outlet,1
 Non-Parent Node Connection,NODE 53,CONNECTOR:SPLITTER,HOT WATER LOOP DEMAND SPLITTER,Outlet,1
 Non-Parent Node Connection,HOT WATER LOOP DEMAND BYPASS PIPE INLET NODE,CONNECTOR:SPLITTER,HOT WATER LOOP DEMAND SPLITTER,Outlet,1
 Non-Parent Node Connection,HOT WATER LOOP DEMAND OUTLET PIPE NODE,CONNECTOR:MIXER,HOT WATER LOOP DEMAND MIXER,Outlet,1
 Non-Parent Node Connection,NODE 28,CONNECTOR:MIXER,HOT WATER LOOP DEMAND MIXER,Inlet,1
 Non-Parent Node Connection,NODE 41,CONNECTOR:MIXER,HOT WATER LOOP DEMAND MIXER,Inlet,1
 Non-Parent Node Connection,NODE 54,CONNECTOR:MIXER,HOT WATER LOOP DEMAND MIXER,Inlet,1
 Non-Parent Node Connection,HOT WATER LOOP DEMAND BYPASS PIPE OUTLET NODE,CONNECTOR:MIXER,HOT WATER LOOP DEMAND MIXER,Inlet,1
 Non-Parent Node Connection,NODE 10,CONNECTOR:SPLITTER,HOT WATER LOOP SUPPLY SPLITTER,Inlet,1
 Non-Parent Node Connection,NODE 5,CONNECTOR:SPLITTER,HOT WATER LOOP SUPPLY SPLITTER,Outlet,1
 Non-Parent Node Connection,NODE 12,CONNECTOR:SPLITTER,HOT WATER LOOP SUPPLY SPLITTER,Outlet,1
 Non-Parent Node Connection,NODE 14,CONNECTOR:SPLITTER,HOT WATER LOOP SUPPLY SPLITTER,Outlet,1
 Non-Parent Node Connection,NODE 16,CONNECTOR:MIXER,HOT WATER LOOP SUPPLY MIXER,Outlet,1
 Non-Parent Node Connection,NODE 11,CONNECTOR:MIXER,HOT WATER LOOP SUPPLY MIXER,Inlet,1
 Non-Parent Node Connection,NODE 13,CONNECTOR:MIXER,HOT WATER LOOP SUPPLY MIXER,Inlet,1
 Non-Parent Node Connection,NODE 15,CONNECTOR:MIXER,HOT WATER LOOP SUPPLY MIXER,Inlet,1
 Non-Parent Node Connection,NODE 67,CONNECTOR:SPLITTER,MAIN SERVICE WATER LOOP DEMAND SPLITTER,Inlet,1
 Non-Parent Node Connection,NODE 60,CONNECTOR:SPLITTER,MAIN SERVICE WATER LOOP DEMAND SPLITTER,Outlet,1
 Non-Parent Node Connection,NODE 69,CONNECTOR:SPLITTER,MAIN SERVICE WATER LOOP DEMAND SPLITTER,Outlet,1
 Non-Parent Node Connection,NODE 71,CONNECTOR:SPLITTER,MAIN SERVICE WATER LOOP DEMAND SPLITTER,Outlet,1
 Non-Parent Node Connection,NODE 73,CONNECTOR:SPLITTER,MAIN SERVICE WATER LOOP DEMAND SPLITTER,Outlet,1
 Non-Parent Node Connection,NODE 75,CONNECTOR:SPLITTER,MAIN SERVICE WATER LOOP DEMAND SPLITTER,Outlet,1
 Non-Parent Node Connection,NODE 77,CONNECTOR:SPLITTER,MAIN SERVICE WATER LOOP DEMAND SPLITTER,Outlet,1
 Non-Parent Node Connection,NODE 79,CONNECTOR:SPLITTER,MAIN SERVICE WATER LOOP DEMAND SPLITTER,Outlet,1
 Non-Parent Node Connection,NODE 81,CONNECTOR:SPLITTER,MAIN SERVICE WATER LOOP DEMAND SPLITTER,Outlet,1
 Non-Parent Node Connection,NODE 83,CONNECTOR:SPLITTER,MAIN SERVICE WATER LOOP DEMAND SPLITTER,Outlet,1
 Non-Parent Node Connection,NODE 85,CONNECTOR:SPLITTER,MAIN SERVICE WATER LOOP DEMAND SPLITTER,Outlet,1
 Non-Parent Node Connection,NODE 87,CONNECTOR:SPLITTER,MAIN SERVICE WATER LOOP DEMAND SPLITTER,Outlet,1
 Non-Parent Node Connection,MAIN SERVICE WATER LOOP DEMAND BYPASS PIPE INLET NODE,CONNECTOR:SPLITTER,MAIN SERVICE WATER LOOP DEMAND SPLITTER,Outlet,1
 Non-Parent Node Connection,NODE 68,CONNECTOR:MIXER,MAIN SERVICE WATER LOOP DEMAND MIXER,Outlet,1
 Non-Parent Node Connection,NODE 65,CONNECTOR:MIXER,MAIN SERVICE WATER LOOP DEMAND MIXER,Inlet,1
 Non-Parent Node Connection,NODE 70,CONNECTOR:MIXER,MAIN SERVICE WATER LOOP DEMAND MIXER,Inlet,1
 Non-Parent Node Connection,NODE 72,CONNECTOR:MIXER,MAIN SERVICE WATER LOOP DEMAND MIXER,Inlet,1
 Non-Parent Node Connection,NODE 74,CONNECTOR:MIXER,MAIN SERVICE WATER LOOP DEMAND MIXER,Inlet,1
 Non-Parent Node Connection,NODE 76,CONNECTOR:MIXER,MAIN SERVICE WATER LOOP DEMAND MIXER,Inlet,1
 Non-Parent Node Connection,NODE 78,CONNECTOR:MIXER,MAIN SERVICE WATER LOOP DEMAND MIXER,Inlet,1
 Non-Parent Node Connection,NODE 80,CONNECTOR:MIXER,MAIN SERVICE WATER LOOP DEMAND MIXER,Inlet,1
 Non-Parent Node Connection,NODE 82,CONNECTOR:MIXER,MAIN SERVICE WATER LOOP DEMAND MIXER,Inlet,1
 Non-Parent Node Connection,NODE 84,CONNECTOR:MIXER,MAIN SERVICE WATER LOOP DEMAND MIXER,Inlet,1
 Non-Parent Node Connection,NODE 86,CONNECTOR:MIXER,MAIN SERVICE WATER LOOP DEMAND MIXER,Inlet,1
 Non-Parent Node Connection,NODE 88,CONNECTOR:MIXER,MAIN SERVICE WATER LOOP DEMAND MIXER,Inlet,1
 Non-Parent Node Connection,MAIN SERVICE WATER LOOP DEMAND BYPASS PIPE OUTLET NODE,CONNECTOR:MIXER,MAIN SERVICE WATER LOOP DEMAND MIXER,Inlet,1
 Non-Parent Node Connection,NODE 61,CONNECTOR:SPLITTER,MAIN SERVICE WATER LOOP SUPPLY SPLITTER,Inlet,1
 Non-Parent Node Connection,NODE 57,CONNECTOR:SPLITTER,MAIN SERVICE WATER LOOP SUPPLY SPLITTER,Outlet,1
 Non-Parent Node Connection,NODE 63,CONNECTOR:SPLITTER,MAIN SERVICE WATER LOOP SUPPLY SPLITTER,Outlet,1
 Non-Parent Node Connection,NODE 66,CONNECTOR:MIXER,MAIN SERVICE WATER LOOP SUPPLY MIXER,Outlet,1
 Non-Parent Node Connection,NODE 62,CONNECTOR:MIXER,MAIN SERVICE WATER LOOP SUPPLY MIXER,Inlet,1
 Non-Parent Node Connection,NODE 64,CONNECTOR:MIXER,MAIN SERVICE WATER LOOP SUPPLY MIXER,Inlet,1
 Non-Parent Node Connection,NODE 69,WATERUSE:CONNECTIONS,WATER USE CONNECTIONS 1,Inlet,1
 Non-Parent Node Connection,NODE 70,WATERUSE:CONNECTIONS,WATER USE CONNECTIONS 1,Outlet,1
 Non-Parent Node Connection,NODE 71,WATERUSE:CONNECTIONS,WATER USE CONNECTIONS 2,Inlet,1
 Non-Parent Node Connection,NODE 72,WATERUSE:CONNECTIONS,WATER USE CONNECTIONS 2,Outlet,1
 Non-Parent Node Connection,NODE 73,WATERUSE:CONNECTIONS,WATER USE CONNECTIONS 3,Inlet,1
 Non-Parent Node Connection,NODE 74,WATERUSE:CONNECTIONS,WATER USE CONNECTIONS 3,Outlet,1
 Non-Parent Node Connection,NODE 75,WATERUSE:CONNECTIONS,WATER USE CONNECTIONS 4,Inlet,1
 Non-Parent Node Connection,NODE 76,WATERUSE:CONNECTIONS,WATER USE CONNECTIONS 4,Outlet,1
 Non-Parent Node Connection,NODE 77,WATERUSE:CONNECTIONS,WATER USE CONNECTIONS 5,Inlet,1
 Non-Parent Node Connection,NODE 78,WATERUSE:CONNECTIONS,WATER USE CONNECTIONS 5,Outlet,1
 Non-Parent Node Connection,NODE 79,WATERUSE:CONNECTIONS,WATER USE CONNECTIONS 6,Inlet,1
 Non-Parent Node Connection,NODE 80,WATERUSE:CONNECTIONS,WATER USE CONNECTIONS 6,Outlet,1
 Non-Parent Node Connection,NODE 81,WATERUSE:CONNECTIONS,WATER USE CONNECTIONS 7,Inlet,1
 Non-Parent Node Connection,NODE 82,WATERUSE:CONNECTIONS,WATER USE CONNECTIONS 7,Outlet,1
 Non-Parent Node Connection,NODE 83,WATERUSE:CONNECTIONS,WATER USE CONNECTIONS 8,Inlet,1
 Non-Parent Node Connection,NODE 84,WATERUSE:CONNECTIONS,WATER USE CONNECTIONS 8,Outlet,1
 Non-Parent Node Connection,NODE 85,WATERUSE:CONNECTIONS,WATER USE CONNECTIONS 9,Inlet,1
 Non-Parent Node Connection,NODE 86,WATERUSE:CONNECTIONS,WATER USE CONNECTIONS 9,Outlet,1
 Non-Parent Node Connection,NODE 87,WATERUSE:CONNECTIONS,WATER USE CONNECTIONS 10,Inlet,1
 Non-Parent Node Connection,NODE 88,WATERUSE:CONNECTIONS,WATER USE CONNECTIONS 10,Outlet,1
 Non-Parent Node Connection,NODE 19,AIRLOOPHVAC:ZONESPLITTER,AIR LOOP HVAC ZONE SPLITTER 1,Inlet,1
 Non-Parent Node Connection,NODE 100,AIRLOOPHVAC:ZONESPLITTER,AIR LOOP HVAC ZONE SPLITTER 1,Outlet,1
 Non-Parent Node Connection,NODE 31,AIRLOOPHVAC:ZONESPLITTER,AIR LOOP HVAC ZONE SPLITTER 2,Inlet,1
 Non-Parent Node Connection,NODE 96,AIRLOOPHVAC:ZONESPLITTER,AIR LOOP HVAC ZONE SPLITTER 2,Outlet,1
 Non-Parent Node Connection,NODE 44,AIRLOOPHVAC:ZONESPLITTER,AIR LOOP HVAC ZONE SPLITTER 3,Inlet,1
 Non-Parent Node Connection,NODE 98,AIRLOOPHVAC:ZONESPLITTER,AIR LOOP HVAC ZONE SPLITTER 3,Outlet,1
 Non-Parent Node Connection,ALL_ST=SALES AREA_FL=BUILDING STORY 1_SCH=C ERV DOAS OA NODE,HEATEXCHANGER:AIRTOAIR:SENSIBLEANDLATENT,ALL_ST=SALES AREA_FL=BUILDING STORY 1_SCH=C ERV HX,Inlet,1
 Non-Parent Node Connection,ALL_ST=SALES AREA_FL=BUILDING STORY 1_SCH=C ERV DOAS SUPPLY FAN INLET NODE,HEATEXCHANGER:AIRTOAIR:SENSIBLEANDLATENT,ALL_ST=SALES AREA_FL=BUILDING STORY 1_SCH=C ERV HX,Outlet,1
 Non-Parent Node Connection,NODE 105,HEATEXCHANGER:AIRTOAIR:SENSIBLEANDLATENT,ALL_ST=SALES AREA_FL=BUILDING STORY 1_SCH=C ERV HX,Inlet,2
 Non-Parent Node Connection,ALL_ST=SALES AREA_FL=BUILDING STORY 1_SCH=C ERV DOAS EXHAUST FAN INLET NODE,HEATEXCHANGER:AIRTOAIR:SENSIBLEANDLATENT,ALL_ST=SALES AREA_FL=BUILDING STORY 1_SCH=C ERV HX,Outlet,2
 Non-Parent Node Connection,ALL_ST=SALES AREA_FL=BUILDING STORY 1_SCH=C 1 ERV DOAS OA NODE,HEATEXCHANGER:AIRTOAIR:SENSIBLEANDLATENT,ALL_ST=SALES AREA_FL=BUILDING STORY 1_SCH=C 1 ERV HX,Inlet,1
 Non-Parent Node Connection,ALL_ST=SALES AREA_FL=BUILDING STORY 1_SCH=C 1 ERV DOAS SUPPLY FAN INLET NODE,HEATEXCHANGER:AIRTOAIR:SENSIBLEANDLATENT,ALL_ST=SALES AREA_FL=BUILDING STORY 1_SCH=C 1 ERV HX,Outlet,1
 Non-Parent Node Connection,NODE 101,HEATEXCHANGER:AIRTOAIR:SENSIBLEANDLATENT,ALL_ST=SALES AREA_FL=BUILDING STORY 1_SCH=C 1 ERV HX,Inlet,2
 Non-Parent Node Connection,ALL_ST=SALES AREA_FL=BUILDING STORY 1_SCH=C 1 ERV DOAS EXHAUST FAN INLET NODE,HEATEXCHANGER:AIRTOAIR:SENSIBLEANDLATENT,ALL_ST=SALES AREA_FL=BUILDING STORY 1_SCH=C 1 ERV HX,Outlet,2
 Non-Parent Node Connection,ALL_ST=SALES AREA_FL=BUILDING STORY 1_SCH=C 2 ERV DOAS OA NODE,HEATEXCHANGER:AIRTOAIR:SENSIBLEANDLATENT,ALL_ST=SALES AREA_FL=BUILDING STORY 1_SCH=C 2 ERV HX,Inlet,1
 Non-Parent Node Connection,ALL_ST=SALES AREA_FL=BUILDING STORY 1_SCH=C 2 ERV DOAS SUPPLY FAN INLET NODE,HEATEXCHANGER:AIRTOAIR:SENSIBLEANDLATENT,ALL_ST=SALES AREA_FL=BUILDING STORY 1_SCH=C 2 ERV HX,Outlet,1
 Non-Parent Node Connection,NODE 103,HEATEXCHANGER:AIRTOAIR:SENSIBLEANDLATENT,ALL_ST=SALES AREA_FL=BUILDING STORY 1_SCH=C 2 ERV HX,Inlet,2
 Non-Parent Node Connection,ALL_ST=SALES AREA_FL=BUILDING STORY 1_SCH=C 2 ERV DOAS EXHAUST FAN INLET NODE,HEATEXCHANGER:AIRTOAIR:SENSIBLEANDLATENT,ALL_ST=SALES AREA_FL=BUILDING STORY 1_SCH=C 2 ERV HX,Outlet,2
 Non-Parent Node Connection,NODE 22,HEATEXCHANGER:AIRTOAIR:SENSIBLEANDLATENT,SYS_3_PSZ ALL_ST=SALES AREA_FL=BUILDING STORY 1_SCH=C ERV,Inlet,1
 Non-Parent Node Connection,NODE 90,HEATEXCHANGER:AIRTOAIR:SENSIBLEANDLATENT,SYS_3_PSZ ALL_ST=SALES AREA_FL=BUILDING STORY 1_SCH=C ERV,Outlet,1
 Non-Parent Node Connection,NODE 91,HEATEXCHANGER:AIRTOAIR:SENSIBLEANDLATENT,SYS_3_PSZ ALL_ST=SALES AREA_FL=BUILDING STORY 1_SCH=C ERV,Inlet,2
 Non-Parent Node Connection,NODE 23,HEATEXCHANGER:AIRTOAIR:SENSIBLEANDLATENT,SYS_3_PSZ ALL_ST=SALES AREA_FL=BUILDING STORY 1_SCH=C ERV,Outlet,2
 Non-Parent Node Connection,NODE 34,HEATEXCHANGER:AIRTOAIR:SENSIBLEANDLATENT,SYS_3_PSZ ALL_ST=SALES AREA_FL=BUILDING STORY 1_SCH=C 1 ERV,Inlet,1
 Non-Parent Node Connection,NODE 92,HEATEXCHANGER:AIRTOAIR:SENSIBLEANDLATENT,SYS_3_PSZ ALL_ST=SALES AREA_FL=BUILDING STORY 1_SCH=C 1 ERV,Outlet,1
 Non-Parent Node Connection,NODE 93,HEATEXCHANGER:AIRTOAIR:SENSIBLEANDLATENT,SYS_3_PSZ ALL_ST=SALES AREA_FL=BUILDING STORY 1_SCH=C 1 ERV,Inlet,2
 Non-Parent Node Connection,NODE 35,HEATEXCHANGER:AIRTOAIR:SENSIBLEANDLATENT,SYS_3_PSZ ALL_ST=SALES AREA_FL=BUILDING STORY 1_SCH=C 1 ERV,Outlet,2
 Non-Parent Node Connection,NODE 47,HEATEXCHANGER:AIRTOAIR:SENSIBLEANDLATENT,SYS_3_PSZ ALL_ST=SALES AREA_FL=BUILDING STORY 1_SCH=C 2 ERV,Inlet,1
 Non-Parent Node Connection,NODE 94,HEATEXCHANGER:AIRTOAIR:SENSIBLEANDLATENT,SYS_3_PSZ ALL_ST=SALES AREA_FL=BUILDING STORY 1_SCH=C 2 ERV,Outlet,1
 Non-Parent Node Connection,NODE 95,HEATEXCHANGER:AIRTOAIR:SENSIBLEANDLATENT,SYS_3_PSZ ALL_ST=SALES AREA_FL=BUILDING STORY 1_SCH=C 2 ERV,Inlet,2
 Non-Parent Node Connection,NODE 48,HEATEXCHANGER:AIRTOAIR:SENSIBLEANDLATENT,SYS_3_PSZ ALL_ST=SALES AREA_FL=BUILDING STORY 1_SCH=C 2 ERV,Outlet,2
 Non-Parent Node Connection,NODE 9,ZONEHVAC:BASEBOARD:CONVECTIVE:WATER,ZONE HVAC BASEBOARD CONVECTIVE WATER 1,Inlet,1
 Non-Parent Node Connection,NODE 28,ZONEHVAC:BASEBOARD:CONVECTIVE:WATER,ZONE HVAC BASEBOARD CONVECTIVE WATER 1,Outlet,1
 Non-Parent Node Connection,NODE 40,ZONEHVAC:BASEBOARD:CONVECTIVE:WATER,ZONE HVAC BASEBOARD CONVECTIVE WATER 2,Inlet,1
 Non-Parent Node Connection,NODE 41,ZONEHVAC:BASEBOARD:CONVECTIVE:WATER,ZONE HVAC BASEBOARD CONVECTIVE WATER 2,Outlet,1
 Non-Parent Node Connection,NODE 53,ZONEHVAC:BASEBOARD:CONVECTIVE:WATER,ZONE HVAC BASEBOARD CONVECTIVE WATER 3,Inlet,1
 Non-Parent Node Connection,NODE 54,ZONEHVAC:BASEBOARD:CONVECTIVE:WATER,ZONE HVAC BASEBOARD CONVECTIVE WATER 3,Outlet,1
 Non-Parent Node Connection,NODE 21,AIRTERMINAL:SINGLEDUCT:VAV:HEATANDCOOL:NOREHEAT,ALL_ST=SALES AREA_FL=BUILDING STORY 1_SCH=C VAV TERMINAL,Outlet,1
 Non-Parent Node Connection,NODE 100,AIRTERMINAL:SINGLEDUCT:VAV:HEATANDCOOL:NOREHEAT,ALL_ST=SALES AREA_FL=BUILDING STORY 1_SCH=C VAV TERMINAL,Inlet,1
 Non-Parent Node Connection,NODE 33,AIRTERMINAL:SINGLEDUCT:VAV:HEATANDCOOL:NOREHEAT,ALL_ST=SALES AREA_FL=BUILDING STORY 1_SCH=C 1 VAV TERMINAL,Outlet,1
 Non-Parent Node Connection,NODE 96,AIRTERMINAL:SINGLEDUCT:VAV:HEATANDCOOL:NOREHEAT,ALL_ST=SALES AREA_FL=BUILDING STORY 1_SCH=C 1 VAV TERMINAL,Inlet,1
 Non-Parent Node Connection,NODE 46,AIRTERMINAL:SINGLEDUCT:VAV:HEATANDCOOL:NOREHEAT,ALL_ST=SALES AREA_FL=BUILDING STORY 1_SCH=C 2 VAV TERMINAL,Outlet,1
 Non-Parent Node Connection,NODE 98,AIRTERMINAL:SINGLEDUCT:VAV:HEATANDCOOL:NOREHEAT,ALL_ST=SALES AREA_FL=BUILDING STORY 1_SCH=C 2 VAV TERMINAL,Inlet,1
 Non-Parent Node Connection,NODE 20,AIRLOOPHVAC:ZONEMIXER,AIR LOOP HVAC ZONE MIXER 1,Outlet,1
 Non-Parent Node Connection,NODE 27,AIRLOOPHVAC:ZONEMIXER,AIR LOOP HVAC ZONE MIXER 1,Inlet,1
 Non-Parent Node Connection,NODE 32,AIRLOOPHVAC:ZONEMIXER,AIR LOOP HVAC ZONE MIXER 2,Outlet,1
 Non-Parent Node Connection,NODE 39,AIRLOOPHVAC:ZONEMIXER,AIR LOOP HVAC ZONE MIXER 2,Inlet,1
 Non-Parent Node Connection,NODE 45,AIRLOOPHVAC:ZONEMIXER,AIR LOOP HVAC ZONE MIXER 3,Outlet,1
 Non-Parent Node Connection,NODE 52,AIRLOOPHVAC:ZONEMIXER,AIR LOOP HVAC ZONE MIXER 3,Inlet,1
 Non-Parent Node Connection,NODE 26,OUTDOORAIR:MIXER,AIR LOOP HVAC OUTDOOR AIR SYSTEM 1 OUTDOOR AIR MIXER,Outlet,1
 Non-Parent Node Connection,NODE 90,OUTDOORAIR:MIXER,AIR LOOP HVAC OUTDOOR AIR SYSTEM 1 OUTDOOR AIR MIXER,Inlet,1
 Non-Parent Node Connection,NODE 91,OUTDOORAIR:MIXER,AIR LOOP HVAC OUTDOOR AIR SYSTEM 1 OUTDOOR AIR MIXER,ReliefAir,1
 Non-Parent Node Connection,NODE 17,OUTDOORAIR:MIXER,AIR LOOP HVAC OUTDOOR AIR SYSTEM 1 OUTDOOR AIR MIXER,Inlet,1
 Non-Parent Node Connection,NODE 38,OUTDOORAIR:MIXER,AIR LOOP HVAC OUTDOOR AIR SYSTEM 2 OUTDOOR AIR MIXER,Outlet,1
 Non-Parent Node Connection,NODE 92,OUTDOORAIR:MIXER,AIR LOOP HVAC OUTDOOR AIR SYSTEM 2 OUTDOOR AIR MIXER,Inlet,1
 Non-Parent Node Connection,NODE 93,OUTDOORAIR:MIXER,AIR LOOP HVAC OUTDOOR AIR SYSTEM 2 OUTDOOR AIR MIXER,ReliefAir,1
 Non-Parent Node Connection,NODE 29,OUTDOORAIR:MIXER,AIR LOOP HVAC OUTDOOR AIR SYSTEM 2 OUTDOOR AIR MIXER,Inlet,1
 Non-Parent Node Connection,NODE 51,OUTDOORAIR:MIXER,AIR LOOP HVAC OUTDOOR AIR SYSTEM 3 OUTDOOR AIR MIXER,Outlet,1
 Non-Parent Node Connection,NODE 94,OUTDOORAIR:MIXER,AIR LOOP HVAC OUTDOOR AIR SYSTEM 3 OUTDOOR AIR MIXER,Inlet,1
 Non-Parent Node Connection,NODE 95,OUTDOORAIR:MIXER,AIR LOOP HVAC OUTDOOR AIR SYSTEM 3 OUTDOOR AIR MIXER,ReliefAir,1
 Non-Parent Node Connection,NODE 42,OUTDOORAIR:MIXER,AIR LOOP HVAC OUTDOOR AIR SYSTEM 3 OUTDOOR AIR MIXER,Inlet,1
 Non-Parent Node Connection,NODE 26,CONTROLLER:OUTDOORAIR,CONTROLLER OUTDOOR AIR 1,Sensor,1
 Non-Parent Node Connection,NODE 22,CONTROLLER:OUTDOORAIR,CONTROLLER OUTDOOR AIR 1,Actuator,1
 Non-Parent Node Connection,NODE 91,CONTROLLER:OUTDOORAIR,CONTROLLER OUTDOOR AIR 1,Actuator,1
 Non-Parent Node Connection,NODE 17,CONTROLLER:OUTDOORAIR,CONTROLLER OUTDOOR AIR 1,Sensor,1
 Non-Parent Node Connection,NODE 38,CONTROLLER:OUTDOORAIR,CONTROLLER OUTDOOR AIR 2,Sensor,1
 Non-Parent Node Connection,NODE 34,CONTROLLER:OUTDOORAIR,CONTROLLER OUTDOOR AIR 2,Actuator,1
 Non-Parent Node Connection,NODE 93,CONTROLLER:OUTDOORAIR,CONTROLLER OUTDOOR AIR 2,Actuator,1
 Non-Parent Node Connection,NODE 29,CONTROLLER:OUTDOORAIR,CONTROLLER OUTDOOR AIR 2,Sensor,1
 Non-Parent Node Connection,NODE 51,CONTROLLER:OUTDOORAIR,CONTROLLER OUTDOOR AIR 3,Sensor,1
 Non-Parent Node Connection,NODE 47,CONTROLLER:OUTDOORAIR,CONTROLLER OUTDOOR AIR 3,Actuator,1
 Non-Parent Node Connection,NODE 95,CONTROLLER:OUTDOORAIR,CONTROLLER OUTDOOR AIR 3,Actuator,1
 Non-Parent Node Connection,NODE 42,CONTROLLER:OUTDOORAIR,CONTROLLER OUTDOOR AIR 3,Sensor,1
 Non-Parent Node Connection,NODE 25,COIL:HEATING:FUEL,COIL HEATING GAS 1,Inlet,1
 Non-Parent Node Connection,NODE 99,COIL:HEATING:FUEL,COIL HEATING GAS 1,Outlet,1
 Non-Parent Node Connection,NODE 99,COIL:HEATING:FUEL,COIL HEATING GAS 1,Sensor,1
 Non-Parent Node Connection,NODE 37,COIL:HEATING:FUEL,COIL HEATING GAS 2,Inlet,1
 Non-Parent Node Connection,NODE 89,COIL:HEATING:FUEL,COIL HEATING GAS 2,Outlet,1
 Non-Parent Node Connection,NODE 89,COIL:HEATING:FUEL,COIL HEATING GAS 2,Sensor,1
 Non-Parent Node Connection,NODE 50,COIL:HEATING:FUEL,COIL HEATING GAS 3,Inlet,1
 Non-Parent Node Connection,NODE 97,COIL:HEATING:FUEL,COIL HEATING GAS 3,Outlet,1
 Non-Parent Node Connection,NODE 97,COIL:HEATING:FUEL,COIL HEATING GAS 3,Sensor,1
 Non-Parent Node Connection,NODE 5,BOILER:HOTWATER,PRIMARY BOILER 355KBTU/HR 0.83 THERMAL EFF,Inlet,1
 Non-Parent Node Connection,NODE 11,BOILER:HOTWATER,PRIMARY BOILER 355KBTU/HR 0.83 THERMAL EFF,Outlet,1
 Non-Parent Node Connection,NODE 12,BOILER:HOTWATER,SECONDARY BOILER 0KBTU/HR 0.85 AFUE,Inlet,1
 Non-Parent Node Connection,NODE 13,BOILER:HOTWATER,SECONDARY BOILER 0KBTU/HR 0.85 AFUE,Outlet,1
 Non-Parent Node Connection,NODE 2,PUMP:VARIABLESPEED,PUMP VARIABLE SPEED 1,Inlet,1
 Non-Parent Node Connection,NODE 10,PUMP:VARIABLESPEED,PUMP VARIABLE SPEED 1,Outlet,1
 Non-Parent Node Connection,NODE 55,PUMP:CONSTANTSPEED,SERVICE WATER LOOP PUMP,Inlet,1
 Non-Parent Node Connection,NODE 61,PUMP:CONSTANTSPEED,SERVICE WATER LOOP PUMP,Outlet,1
