Program Version,EnergyPlus, Version 8.9.0-eba93e8e1b, YMD=2019.08.13 16:41
! <Version>, Version ID
 Version, 8.9
! <Timesteps per Hour>, #TimeSteps, Minutes per TimeStep {minutes}
 Timesteps per Hour,  6, 10
! <System Convergence Limits>, Minimum System TimeStep {minutes}, Max HVAC Iterations, Minimum Plant Iterations, Maximum Plant Iterations
 System Convergence Limits, 1, 20, 2, 8
! <Simulation Control>, Do Zone Sizing, Do System Sizing, Do Plant Sizing, Do Design Days, Do Weather Simulation, Do HVAC Sizing Simulation
 Simulation Control, Yes, Yes, Yes, No, Yes, No
! <Output Reporting Tolerances>, Tolerance for Time Heating Setpoint Not Met, Tolerance for Zone Cooling Setpoint Not Met Time
 Output Reporting Tolerances, 1.000, 1.000, 
! <Site:GroundTemperature:BuildingSurface>,Jan{C},Feb{C},Mar{C},Apr{C},May{C},Jun{C},Jul{C},Aug{C},Sep{C},Oct{C},Nov{C},Dec{C}
 Site:GroundTemperature:BuildingSurface,  19.53,  19.50,  19.54,  19.60,  20.00,  21.64,  22.23,  22.38,  21.45,  20.12,  19.80,  19.63
! <Site:GroundTemperature:FCfactorMethod>,Jan{C},Feb{C},Mar{C},Apr{C},May{C},Jun{C},Jul{C},Aug{C},Sep{C},Oct{C},Nov{C},Dec{C}
 Site:GroundTemperature:FCfactorMethod,   0.43,  -0.56,   1.20,   3.96,  11.16,  16.72,  20.47,  21.61,  19.67,  15.35,   9.58,   4.23
! <Site:GroundTemperature:Shallow>,Jan{C},Feb{C},Mar{C},Apr{C},May{C},Jun{C},Jul{C},Aug{C},Sep{C},Oct{C},Nov{C},Dec{C}
 Site:GroundTemperature:Shallow,  13.00,  13.00,  13.00,  13.00,  13.00,  13.00,  13.00,  13.00,  13.00,  13.00,  13.00,  13.00
! <Site:GroundTemperature:Deep>,Jan{C},Feb{C},Mar{C},Apr{C},May{C},Jun{C},Jul{C},Aug{C},Sep{C},Oct{C},Nov{C},Dec{C}
 Site:GroundTemperature:Deep,  16.00,  16.00,  16.00,  16.00,  16.00,  16.00,  16.00,  16.00,  16.00,  16.00,  16.00,  16.00
! <Site:GroundReflectance>,Jan{dimensionless},Feb{dimensionless},Mar{dimensionless},Apr{dimensionless},May{dimensionless},Jun{dimensionless},Jul{dimensionless},Aug{dimensionless},Sep{dimensionless},Oct{dimensionless},Nov{dimensionless},Dec{dimensionless}
 Site:GroundReflectance,  0.20,  0.20,  0.20,  0.20,  0.20,  0.20,  0.20,  0.20,  0.20,  0.20,  0.20,  0.20
! <Site:GroundReflectance:SnowModifier>, Normal, Daylighting {dimensionless}
 Site:GroundReflectance:SnowModifier,   1.000,   1.000
! <Site:GroundReflectance:Snow>,Jan{dimensionless},Feb{dimensionless},Mar{dimensionless},Apr{dimensionless},May{dimensionless},Jun{dimensionless},Jul{dimensionless},Aug{dimensionless},Sep{dimensionless},Oct{dimensionless},Nov{dimensionless},Dec{dimensionless}
 Site:GroundReflectance:Snow,  0.20,  0.20,  0.20,  0.20,  0.20,  0.20,  0.20,  0.20,  0.20,  0.20,  0.20,  0.20
! <Site:GroundReflectance:Snow:Daylighting>,Jan{dimensionless},Feb{dimensionless},Mar{dimensionless},Apr{dimensionless},May{dimensionless},Jun{dimensionless},Jul{dimensionless},Aug{dimensionless},Sep{dimensionless},Oct{dimensionless},Nov{dimensionless},Dec{dimensionless}
 Site:GroundReflectance:Snow:Daylighting,  0.20,  0.20,  0.20,  0.20,  0.20,  0.20,  0.20,  0.20,  0.20,  0.20,  0.20,  0.20
! <Environment:Weather Station>,Wind Sensor Height Above Ground {m},Wind Speed Profile Exponent {},Wind Speed Profile Boundary Layer Thickness {m},Air Temperature Sensor Height Above Ground {m},Wind Speed Modifier Coefficient-Internal,Temperature Modifier Coefficient-Internal
Environment:Weather Station,10.000,0.140,270.000,1.500,1.586,9.750E-003
! <Site:Location>, Location Name, Latitude {N+/S- Deg}, Longitude {E+/W- Deg},  Time Zone Number {GMT+/-}, Elevation {m},  Standard Pressure at Elevation {Pa}, Standard RhoAir at Elevation
Site:Location,Windsor Intl AP ON CAN CWEC2016 WMO#=715380,42.28,-82.96,-5.00,189.60,99068,1.1775
! <Building Information>, Building Name,North Axis {deg},Terrain,  Loads Convergence Tolerance Value,Temperature Convergence Tolerance Value,  Solar Distribution,Maximum Number of Warmup Days,Minimum Number of Warmup Days
 Building Information,RetailStripmall-CAN_ON_Windsor.Intl.AP.715380_CWEC2016.epw created: 2019-08-07 22:53:17 +0000,0.000,Suburbs,4.00000E-002,0.40000,FullExterior,25,6
! <Inside Convection Algorithm>, Algorithm {Simple | TARP | CeilingDiffuser | AdaptiveConvectionAlgorithm}
Inside Convection Algorithm,TARP
! <Outside Convection Algorithm>, Algorithm {SimpleCombined | TARP | MoWitt | DOE-2 | AdaptiveConvectionAlgorithm}
Outside Convection Algorithm,TARP
! <Sky Radiance Distribution>, Value {Anisotropic}
Sky Radiance Distribution,Anisotropic
! <Zone Air Solution Algorithm>, Value {ThirdOrderBackwardDifference | AnalyticalSolution | EulerMethod}
 Zone Air Solution Algorithm, ThirdOrderBackwardDifference
! <Zone Air Carbon Dioxide Balance Simulation>, Simulation {Yes/No}, Carbon Dioxide Concentration
 Zone Air Carbon Dioxide Balance Simulation, No,N/A
! <Zone Air Generic Contaminant Balance Simulation>, Simulation {Yes/No}, Generic Contaminant Concentration
 Zone Air Generic Contaminant Balance Simulation, No,N/A
! <Zone Air Mass Flow Balance Simulation>, Enforce Mass Balance, Adjust Zone Mixing, Adjust Zone Infiltration {AddInfiltration | AdjustInfiltration | None}, Infiltration Zones {MixingSourceZonesOnly | AllZones}
 Zone Air Mass Flow Balance Simulation, No,N/A,N/A,N/A
! <HVACSystemRootFindingAlgorithm>, Value {RegulaFalsi | Bisection | BisectionThenRegulaFalsi | RegulaFalsiThenBisection}
 HVACSystemRootFindingAlgorithm, RegulaFalsi
! <Environment:Site Atmospheric Variation>,Wind Speed Profile Exponent {},Wind Speed Profile Boundary Layer Thickness {m},Air Temperature Gradient Coefficient {K/m}
Environment:Site Atmospheric Variation,0.220,370.000,6.500000E-003
! <Surface Geometry>,Starting Corner,Vertex Input Direction,Coordinate System,Daylight Reference Point Coordinate System,Rectangular (Simple) Surface Coordinate System
 Surface Geometry,UpperLeftCorner,Counterclockwise,RelativeCoordinateSystem,RelativeCoordinateSystem,RelativeToZoneOrigin
! <Surface Heat Transfer Algorithm>, Value {CTF - ConductionTransferFunction | EMPD - MoisturePenetrationDepthConductionTransferFunction | CondFD - ConductionFiniteDifference | HAMT - CombinedHeatAndMoistureFiniteElement} - Description,Inside Surface Max Temperature Limit{C}, Surface Convection Coefficient Lower Limit {W/m2-K}, Surface Convection Coefficient Upper Limit {W/m2-K}
Surface Heat Transfer Algorithm, CTF - ConductionTransferFunction,200,0.10,1000.0
! <Shading Summary>, Number of Fixed Detached Shades, Number of Building Detached Shades, Number of Attached Shades
 Shading Summary,0,0,20
! <Zone Summary>, Number of Zones, Number of Zone Surfaces, Number of SubSurfaces
 Zone Summary,3,75,22
! <Zone Information>,Zone Name,North Axis {deg},Origin X-Coordinate {m},Origin Y-Coordinate {m},Origin Z-Coordinate {m},Centroid X-Coordinate {m},Centroid Y-Coordinate {m},Centroid Z-Coordinate {m},Type,Zone Multiplier,Zone List Multiplier,Minimum X {m},Maximum X {m},Minimum Y {m},Maximum Y {m},Minimum Z {m},Maximum Z {m},Ceiling Height {m},Volume {m3},Zone Inside Convection Algorithm {Simple-Detailed-CeilingDiffuser-TrombeWall},Zone Outside Convection Algorithm {Simple-Detailed-Tarp-MoWitt-DOE-2-BLAST}, Floor Area {m2},Exterior Gross Wall Area {m2},Exterior Net Wall Area {m2},Exterior Window Area {m2}, Number of Surfaces, Number of SubSurfaces, Number of Shading SubSurfaces,  Part of Total Building Area
 Zone Information, ALL_ST=SALES AREA_FL=BUILDING STORY 1_SCH=C,0.0,0.00,0.00,0.00,49.53,11.43,2.59,1,1,1,15.24,83.82,0.00,22.86,0.00,5.18,5.18,8120.89,TARP,TARP,1567.74,710.49,525.76,184.73,34,16,16,Yes
 Zone Information, ALL_ST=SALES AREA_FL=BUILDING STORY 1_SCH=C 1,0.0,0.00,0.00,0.00,87.63,11.43,2.59,1,1,1,83.82,91.44,0.00,22.86,0.00,5.18,5.18,902.32,TARP,TARP,174.19,197.36,146.04,51.31,6,3,2,Yes
 Zone Information, ALL_ST=SALES AREA_FL=BUILDING STORY 1_SCH=C 2,0.0,0.00,0.00,0.00,7.62,11.43,2.59,1,1,1,0.00,15.24,0.00,22.86,0.00,5.18,5.18,1804.64,TARP,TARP,348.39,276.30,204.46,71.84,6,3,2,Yes
! <Zone Internal Gains Nominal>,Zone Name, Floor Area {m2},# Occupants,Area per Occupant {m2/person},Occupant per Area {person/m2},Interior Lighting {W/m2},Electric Load {W/m2},Gas Load {W/m2},Other Load {W/m2},Hot Water Eq {W/m2},Steam Equipment {W/m2},Sum Loads per Area {W/m2},Outdoor Controlled Baseboard Heat
 Zone Internal Gains Nominal, ALL_ST=SALES AREA_FL=BUILDING STORY 1_SCH=C,1567.74,52.3,29.989,3.335E-002,6.780,1.250,0.000,0.000,0.000,0.000,8.030,No
 Zone Internal Gains Nominal, ALL_ST=SALES AREA_FL=BUILDING STORY 1_SCH=C 1,174.19,5.8,29.989,3.335E-002,6.780,1.250,0.000,0.000,0.000,0.000,8.030,No
 Zone Internal Gains Nominal, ALL_ST=SALES AREA_FL=BUILDING STORY 1_SCH=C 2,348.39,11.6,29.989,3.335E-002,6.780,1.250,0.000,0.000,0.000,0.000,8.030,No
! <People Internal Gains Nominal>,Name,Schedule Name,Zone Name,Zone Floor Area {m2},# Zone Occupants,Number of People {},People/Floor Area {person/m2},Floor Area per person {m2/person},Fraction Radiant,Fraction Convected,Sensible Fraction Calculation,Activity level,ASHRAE 55 Warnings,Carbon Dioxide Generation Rate,Nominal Minimum Number of People,Nominal Maximum Number of People
 People Internal Gains Nominal, ALL_ST=SALES AREA_FL=BUILDING STORY 1_SCH=C SPACE FUNCTION SALES AREA PEOPLE,NECB-C-OCCUPANCY,ALL_ST=SALES AREA_FL=BUILDING STORY 1_SCH=C,1567.74,52.3,52.3,3.335E-002,29.989,0.300,0.700,AutoCalculate,NECB-ACTIVITY,No,3.8200E-008,0,47
 People Internal Gains Nominal, ALL_ST=SALES AREA_FL=BUILDING STORY 1_SCH=C 1 SPACE FUNCTION SALES AREA PEOPLE,NECB-C-OCCUPANCY,ALL_ST=SALES AREA_FL=BUILDING STORY 1_SCH=C 1,174.19,5.8,5.8,3.335E-002,29.989,0.300,0.700,AutoCalculate,NECB-ACTIVITY,No,3.8200E-008,0,5
 People Internal Gains Nominal, ALL_ST=SALES AREA_FL=BUILDING STORY 1_SCH=C 2 SPACE FUNCTION SALES AREA PEOPLE,NECB-C-OCCUPANCY,ALL_ST=SALES AREA_FL=BUILDING STORY 1_SCH=C 2,348.39,11.6,11.6,3.335E-002,29.989,0.300,0.700,AutoCalculate,NECB-ACTIVITY,No,3.8200E-008,0,10
! <Lights Internal Gains Nominal>,Name,Schedule Name,Zone Name,Zone Floor Area {m2},# Zone Occupants,Lighting Level {W},Lights/Floor Area {W/m2},Lights per person {W/person},Fraction Return Air,Fraction Radiant,Fraction Short Wave,Fraction Convected,Fraction Replaceable,End-Use Category,Nominal Minimum Lighting Level {W},Nominal Maximum Lighting Level {W}
 Lights Internal Gains Nominal, ALL_ST=SALES AREA_FL=BUILDING STORY 1_SCH=C SPACE FUNCTION SALES AREA LIGHTS 85.0 PERCENT REDUCTION,NECB-C-OCCUPANCY-NECB-C-LIGHTING-0.0-0.0-0.67-LIGHT RULESET,ALL_ST=SALES AREA_FL=BUILDING STORY 1_SCH=C,1567.74,52.3,10629.269,6.780,203.326,0.000,0.500,0.200,0.300,1.000,General,531.463,9566.342
 Lights Internal Gains Nominal, ALL_ST=SALES AREA_FL=BUILDING STORY 1_SCH=C 1 SPACE FUNCTION SALES AREA LIGHTS 85.0 PERCENT REDUCTION,NECB-C-OCCUPANCY-NECB-C-LIGHTING-0.0-0.0-0.67-LIGHT RULESET,ALL_ST=SALES AREA_FL=BUILDING STORY 1_SCH=C 1,174.19,5.8,1181.030,6.780,203.326,0.000,0.500,0.200,0.300,1.000,General,59.051,1062.927
 Lights Internal Gains Nominal, ALL_ST=SALES AREA_FL=BUILDING STORY 1_SCH=C 2 SPACE FUNCTION SALES AREA LIGHTS 85.0 PERCENT REDUCTION,NECB-C-OCCUPANCY-NECB-C-LIGHTING-0.0-0.0-0.67-LIGHT RULESET,ALL_ST=SALES AREA_FL=BUILDING STORY 1_SCH=C 2,348.39,11.6,2362.060,6.780,203.326,0.000,0.500,0.200,0.300,1.000,General,118.103,2125.854
! <ElectricEquipment Internal Gains Nominal>,Name,Schedule Name,Zone Name,Zone Floor Area {m2},# Zone Occupants,Equipment Level {W},Equipment/Floor Area {W/m2},Equipment per person {W/person},Fraction Latent,Fraction Radiant,Fraction Lost,Fraction Convected,End-Use SubCategory,Nominal Minimum Equipment Level {W},Nominal Maximum Equipment Level {W}
 ElectricEquipment Internal Gains Nominal, ALL_ST=SALES AREA_FL=BUILDING STORY 1_SCH=C SPACE FUNCTION SALES AREA ELEC EQUIP 50.0 PERCENT REDUCTION,NECB-C-ELECTRIC-EQUIPMENT,ALL_ST=SALES AREA_FL=BUILDING STORY 1_SCH=C,1567.74,52.3,1960.386,1.250,37.500,0.000,0.500,0.000,0.500,General,98.019,1764.347
 ElectricEquipment Internal Gains Nominal, ALL_ST=SALES AREA_FL=BUILDING STORY 1_SCH=C 1 SPACE FUNCTION SALES AREA ELEC EQUIP 50.0 PERCENT REDUCTION,NECB-C-ELECTRIC-EQUIPMENT,ALL_ST=SALES AREA_FL=BUILDING STORY 1_SCH=C 1,174.19,5.8,217.821,1.250,37.500,0.000,0.500,0.000,0.500,General,10.891,196.039
 ElectricEquipment Internal Gains Nominal, ALL_ST=SALES AREA_FL=BUILDING STORY 1_SCH=C 2 SPACE FUNCTION SALES AREA ELEC EQUIP 50.0 PERCENT REDUCTION,NECB-C-ELECTRIC-EQUIPMENT,ALL_ST=SALES AREA_FL=BUILDING STORY 1_SCH=C 2,348.39,11.6,435.641,1.250,37.500,0.000,0.500,0.000,0.500,General,21.782,392.077
! <Shadowing/Sun Position Calculations Annual Simulations>, Calculation Method, Value {days}, Allowable Number Figures in Shadow Overlap {}, Polygon Clipping Algorithm, Sky Diffuse Modeling Algorithm, External Shading Calculation Method, Output External Shading Calculation Results, Disable Self-Shading Within Shading Zone Groups, Disable Self-Shading From Shading Zone Groups to Other Zones
Shadowing/Sun Position Calculations Annual Simulations,AverageOverDaysInFrequency,20,15000,SutherlandHodgman,SimpleSkyDiffuseModeling,InternalCalculation,No,No,No
! <Water Heater Information>,Type,Name,Volume {m3},Maximum Capacity {W},Standard Rated Recovery Efficiency, Standard Rated Energy Factor
! <Heat Pump Water Heater Information>,Type,Name,Volume {m3},Maximum Capacity {W},Standard Rated Recovery Efficiency,Standard Rated Energy Factor,"DX Coil Total Cooling Rate {W, HPWH Only}"
! <ZoneInfiltration Airflow Stats Nominal>,Name,Schedule Name,Zone Name, Zone Floor Area {m2}, # Zone Occupants,Design Volume Flow Rate {m3/s},Volume Flow Rate/Floor Area {m3/s/m2},Volume Flow Rate/Exterior Surface Area {m3/s/m2},ACH - Air Changes per Hour,Equation A - Constant Term Coefficient {},Equation B - Temperature Term Coefficient {1/C},Equation C - Velocity Term Coefficient {s/m}, Equation D - Velocity Squared Term Coefficient {s2/m2}
 ZoneInfiltration Airflow Stats Nominal, LGSTORE2 INFILTRATION,ALWAYS ON DISCRETE,ALL_ST=SALES AREA_FL=BUILDING STORY 1_SCH=C,1567.74,52.3,6.967E-002,4.444E-005,3.058E-005,3.088E-002,0.000,0.000,0.224,0.000
 ZoneInfiltration Airflow Stats Nominal, SMSTORE1 INFILTRATION,ALWAYS ON DISCRETE,ALL_ST=SALES AREA_FL=BUILDING STORY 1_SCH=C,1567.74,52.3,3.483E-002,2.222E-005,1.529E-005,1.544E-002,0.000,0.000,0.224,0.000
 ZoneInfiltration Airflow Stats Nominal, SMSTORE2 INFILTRATION,ALWAYS ON DISCRETE,ALL_ST=SALES AREA_FL=BUILDING STORY 1_SCH=C,1567.74,52.3,3.483E-002,2.222E-005,1.529E-005,1.544E-002,0.000,0.000,0.224,0.000
 ZoneInfiltration Airflow Stats Nominal, SMSTORE3 INFILTRATION,ALWAYS ON DISCRETE,ALL_ST=SALES AREA_FL=BUILDING STORY 1_SCH=C,1567.74,52.3,3.483E-002,2.222E-005,1.529E-005,1.544E-002,0.000,0.000,0.224,0.000
 ZoneInfiltration Airflow Stats Nominal, SMSTORE4 INFILTRATION,ALWAYS ON DISCRETE,ALL_ST=SALES AREA_FL=BUILDING STORY 1_SCH=C,1567.74,52.3,3.483E-002,2.222E-005,1.529E-005,1.544E-002,0.000,0.000,0.224,0.000
 ZoneInfiltration Airflow Stats Nominal, SMSTORE5 INFILTRATION,ALWAYS ON DISCRETE,ALL_ST=SALES AREA_FL=BUILDING STORY 1_SCH=C,1567.74,52.3,3.483E-002,2.222E-005,1.529E-005,1.544E-002,0.000,0.000,0.224,0.000
 ZoneInfiltration Airflow Stats Nominal, SMSTORE6 INFILTRATION,ALWAYS ON DISCRETE,ALL_ST=SALES AREA_FL=BUILDING STORY 1_SCH=C,1567.74,52.3,3.483E-002,2.222E-005,1.529E-005,1.544E-002,0.000,0.000,0.224,0.000
 ZoneInfiltration Airflow Stats Nominal, SMSTORE7 INFILTRATION,ALWAYS ON DISCRETE,ALL_ST=SALES AREA_FL=BUILDING STORY 1_SCH=C,1567.74,52.3,3.483E-002,2.222E-005,1.529E-005,1.544E-002,0.000,0.000,0.224,0.000
 ZoneInfiltration Airflow Stats Nominal, SMSTORE8 INFILTRATION,ALWAYS ON DISCRETE,ALL_ST=SALES AREA_FL=BUILDING STORY 1_SCH=C 1,174.19,5.8,5.113E-002,2.935E-004,1.376E-004,0.204,0.000,0.000,0.224,0.000
 ZoneInfiltration Airflow Stats Nominal, LGSTORE1 INFILTRATION,ALWAYS ON DISCRETE,ALL_ST=SALES AREA_FL=BUILDING STORY 1_SCH=C 2,348.39,11.6,8.596E-002,2.467E-004,1.376E-004,0.171,0.000,0.000,0.224,0.000
! <AirFlow Model>, Simple
 AirFlow Model, Simple
! <RoomAir Model>, Zone Name, Mixing/Mundt/UCSDDV/UCSDCV/UCSDUFI/UCSDUFE/User Defined
RoomAir Model,ALL_ST=SALES AREA_FL=BUILDING STORY 1_SCH=C,Mixing/Well-Stirred
RoomAir Model,ALL_ST=SALES AREA_FL=BUILDING STORY 1_SCH=C 1,Mixing/Well-Stirred
RoomAir Model,ALL_ST=SALES AREA_FL=BUILDING STORY 1_SCH=C 2,Mixing/Well-Stirred
! <AirflowNetwork Model:Control>, No Multizone or Distribution/Multizone with Distribution/Multizone without Distribution/Multizone with Distribution only during Fan Operation
AirflowNetwork Model:Control,NoMultizoneOrDistribution
! <Zone Volume Capacitance Multiplier>, Sensible Heat Capacity Multiplier, Moisture Capacity Multiplier, Carbon Dioxide Capacity Multiplier, Generic Contaminant Capacity Multiplier
Zone Volume Capacitance Multiplier,   1.000 ,   1.000,   1.000,   1.000
! <Load Timesteps in Zone Design Calculation Averaging Window>, Value
 Load Timesteps in Zone Design Calculation Averaging Window,    6
! <Heating Sizing Factor Information>, Sizing Factor ID, Value
 Heating Sizing Factor Information, Global,   1.3000    
 Heating Sizing Factor Information, Zone ALL_ST=SALES AREA_FL=BUILDING STORY 1_SCH=C,   1.3000    
 Heating Sizing Factor Information, Zone ALL_ST=SALES AREA_FL=BUILDING STORY 1_SCH=C 1,   1.3000    
 Heating Sizing Factor Information, Zone ALL_ST=SALES AREA_FL=BUILDING STORY 1_SCH=C 2,   1.3000    
! <Cooling Sizing Factor Information>, Sizing Factor ID, Value
 Cooling Sizing Factor Information, Global,   1.1000    
 Cooling Sizing Factor Information, Zone ALL_ST=SALES AREA_FL=BUILDING STORY 1_SCH=C,   1.1000    
 Cooling Sizing Factor Information, Zone ALL_ST=SALES AREA_FL=BUILDING STORY 1_SCH=C 1,   1.1000    
 Cooling Sizing Factor Information, Zone ALL_ST=SALES AREA_FL=BUILDING STORY 1_SCH=C 2,   1.1000    
! <Zone Sizing Information>, Zone Name, Load Type, Calc Des Load {W}, User Des Load {W}, Calc Des Air Flow Rate {m3/s}, User Des Air Flow Rate {m3/s}, Design Day Name, Date/Time of Peak, Temperature at Peak {C}, Humidity Ratio at Peak {kgWater/kgDryAir}, Floor Area {m2}, # Occupants, Calc Outdoor Air Flow Rate {m3/s}, Calc DOAS Heat Addition Rate {W}
 Zone Sizing Information, ALL_ST=SALES AREA_FL=BUILDING STORY 1_SCH=C, Cooling, 31510.13630, 34661.14993, 2.38383, 2.62221, WINDSOR INTL AP ANN CLG .4% CONDNS DB=>MWB, 7/21 13:50:00, 31.92417, 1.45394E-002, 1567.73880, 52.27695, 1.83175, 0.00000
 Zone Sizing Information, ALL_ST=SALES AREA_FL=BUILDING STORY 1_SCH=C, Heating, 34917.76494, 45393.09442, 1.29494, 1.83175, WINDSOR INTL AP ANN HTG 99.6% CONDNS DB, 1/21 08:30:00, -15.50000, 9.92508E-004, 1567.73880, 52.27695, 1.83175, 0.00000
 Zone Sizing Information, ALL_ST=SALES AREA_FL=BUILDING STORY 1_SCH=C 1, Cooling, 11856.35679, 13041.99247, 0.81764, 0.89941, WINDSOR INTL AP ANN CLG .4% CONDNS DB=>MWB, 7/21 08:00:00, 25.26600, 1.45394E-002, 174.19320, 5.80855, 0.20353, 0.00000
 Zone Sizing Information, ALL_ST=SALES AREA_FL=BUILDING STORY 1_SCH=C 1, Heating, 5891.63088, 7659.12015, 0.22933, 0.29812, WINDSOR INTL AP ANN HTG 99.6% CONDNS DB, 1/21 09:00:00, -15.50000, 9.92508E-004, 174.19320, 5.80855, 0.20353, 0.00000
 Zone Sizing Information, ALL_ST=SALES AREA_FL=BUILDING STORY 1_SCH=C 2, Cooling, 16182.33742, 17800.57116, 1.22426, 1.34669, WINDSOR INTL AP ANN CLG .4% CONDNS DB=>MWB, 7/21 17:00:00, 30.72600, 1.45394E-002, 348.38640, 11.61710, 0.40705, 0.00000
 Zone Sizing Information, ALL_ST=SALES AREA_FL=BUILDING STORY 1_SCH=C 2, Heating, 8952.09063, 11637.71782, 0.33266, 0.43246, WINDSOR INTL AP ANN HTG 99.6% CONDNS DB, 1/21 08:30:00, -15.50000, 9.92508E-004, 348.38640, 11.61710, 0.40705, 0.00000
! <System Sizing Information>, System Name, Load Type, Peak Load Kind, User Design Capacity, Calc Des Air Flow Rate [m3/s], User Des Air Flow Rate [m3/s], Design Day Name, Date/Time of Peak
 System Sizing Information, SYS_3_PSZ ALL_ST=SALES AREA_FL=BUILDING STORY 1_SCH=C, Cooling, Sensible, 51301.91, 2.62221, 2.62221, WINDSOR INTL AP ANN CLG .4% CONDNS DB=>MWB, 7/21 05:00:00
 System Sizing Information, SYS_3_PSZ ALL_ST=SALES AREA_FL=BUILDING STORY 1_SCH=C, Heating, Sensible, 126788.65, 1.83175, 1.83175, WINDSOR INTL AP ANN HTG 99.6% CONDNS DB, 1/21 00:10:00
 System Sizing Information, SYS_3_PSZ ALL_ST=SALES AREA_FL=BUILDING STORY 1_SCH=C 1, Cooling, Sensible, 12030.31, 0.89941, 0.89941, WINDSOR INTL AP ANN CLG .4% CONDNS DB=>MWB, 7/21 05:00:00
 System Sizing Information, SYS_3_PSZ ALL_ST=SALES AREA_FL=BUILDING STORY 1_SCH=C 1, Heating, Sensible, 16455.72, 0.29812, 0.29812, WINDSOR INTL AP ANN HTG 99.6% CONDNS DB, 1/21 09:00:00
 System Sizing Information, SYS_3_PSZ ALL_ST=SALES AREA_FL=BUILDING STORY 1_SCH=C 2, Cooling, Sensible, 20765.39, 1.34669, 1.34669, WINDSOR INTL AP ANN CLG .4% CONDNS DB=>MWB, 7/21 05:00:00
 System Sizing Information, SYS_3_PSZ ALL_ST=SALES AREA_FL=BUILDING STORY 1_SCH=C 2, Heating, Sensible, 28843.07, 0.43246, 0.43246, WINDSOR INTL AP ANN HTG 99.6% CONDNS DB, 1/21 09:00:00
! <Component Sizing Information>, Component Type, Component Name, Input Field Description, Value
 Component Sizing Information, ZoneHVAC:EnergyRecoveryVentilator, ALL_ST=SALES AREA_FL=BUILDING STORY 1_SCH=C ERV DOAS, Design Size Supply Air Flow Rate [m3/s], 1.83175
 Component Sizing Information, Fan:OnOff, ALL_ST=SALES AREA_FL=BUILDING STORY 1_SCH=C ERV SUP FAN, Design Size Maximum Flow Rate [m3/s], 1.83175
 Component Sizing Information, Fan:OnOff, ALL_ST=SALES AREA_FL=BUILDING STORY 1_SCH=C ERV EXH FAN, Design Size Maximum Flow Rate [m3/s], 1.83175
 Component Sizing Information, HeatExchanger:AirToAir:SensibleAndLatent, ALL_ST=SALES AREA_FL=BUILDING STORY 1_SCH=C ERV HX, Design Size Nominal Supply Air Flow Rate [m3/s], 1.83175
 Component Sizing Information, ZoneHVAC:EnergyRecoveryVentilator, ALL_ST=SALES AREA_FL=BUILDING STORY 1_SCH=C ERV DOAS, Design Size Exhaust Air Flow Rate [m3/s], 1.83175
 Component Sizing Information, ZoneHVAC:Baseboard:Convective:Water, ZONE HVAC BASEBOARD CONVECTIVE WATER 1, Design Size Maximum Water Flow Rate [m3/s], 6.77983E-004
 Component Sizing Information, ZoneHVAC:Baseboard:Convective:Water, ZONE HVAC BASEBOARD CONVECTIVE WATER 1, Design Size U-Factor Times Area Value [W/K], 1391.97221
 Component Sizing Information, AirTerminal:SingleDuct:VAV:HeatAndCool:NoReheat, ALL_ST=SALES AREA_FL=BUILDING STORY 1_SCH=C VAV TERMINAL, Design Size Maximum Air Flow Rate [m3/s], 2.62221
 Component Sizing Information, AirTerminal:SingleDuct:VAV:HeatAndCool:NoReheat, ALL_ST=SALES AREA_FL=BUILDING STORY 1_SCH=C VAV TERMINAL, Design Size Constant Minimum Air Flow Fraction, 0.45558
 Component Sizing Information, AirTerminal:SingleDuct:VAV:HeatAndCool:NoReheat, ALL_ST=SALES AREA_FL=BUILDING STORY 1_SCH=C VAV TERMINAL, User-Specified Constant Minimum Air Flow Fraction, 5.00000E-002
 Component Sizing Information, AirTerminal:SingleDuct:VAV:HeatAndCool:NoReheat, ALL_ST=SALES AREA_FL=BUILDING STORY 1_SCH=C VAV TERMINAL, Design Size Minimum Air Flow Rate [m3/s], 0.13111
 Component Sizing Information, ZoneHVAC:EnergyRecoveryVentilator, ALL_ST=SALES AREA_FL=BUILDING STORY 1_SCH=C 1 ERV DOAS, Design Size Supply Air Flow Rate [m3/s], 0.20353
 Component Sizing Information, Fan:OnOff, ALL_ST=SALES AREA_FL=BUILDING STORY 1_SCH=C 1 ERV SUP FAN, Design Size Maximum Flow Rate [m3/s], 0.20353
 Component Sizing Information, Fan:OnOff, ALL_ST=SALES AREA_FL=BUILDING STORY 1_SCH=C 1 ERV EXH FAN, Design Size Maximum Flow Rate [m3/s], 0.20353
 Component Sizing Information, HeatExchanger:AirToAir:SensibleAndLatent, ALL_ST=SALES AREA_FL=BUILDING STORY 1_SCH=C 1 ERV HX, Design Size Nominal Supply Air Flow Rate [m3/s], 0.20353
 Component Sizing Information, ZoneHVAC:EnergyRecoveryVentilator, ALL_ST=SALES AREA_FL=BUILDING STORY 1_SCH=C 1 ERV DOAS, Design Size Exhaust Air Flow Rate [m3/s], 0.20353
 Component Sizing Information, ZoneHVAC:Baseboard:Convective:Water, ZONE HVAC BASEBOARD CONVECTIVE WATER 2, Design Size Maximum Water Flow Rate [m3/s], 1.14395E-004
 Component Sizing Information, ZoneHVAC:Baseboard:Convective:Water, ZONE HVAC BASEBOARD CONVECTIVE WATER 2, Design Size U-Factor Times Area Value [W/K], 233.58752
 Component Sizing Information, AirTerminal:SingleDuct:VAV:HeatAndCool:NoReheat, ALL_ST=SALES AREA_FL=BUILDING STORY 1_SCH=C 1 VAV TERMINAL, Design Size Maximum Air Flow Rate [m3/s], 0.89941
 Component Sizing Information, AirTerminal:SingleDuct:VAV:HeatAndCool:NoReheat, ALL_ST=SALES AREA_FL=BUILDING STORY 1_SCH=C 1 VAV TERMINAL, Design Size Constant Minimum Air Flow Fraction, 0.14758
 Component Sizing Information, AirTerminal:SingleDuct:VAV:HeatAndCool:NoReheat, ALL_ST=SALES AREA_FL=BUILDING STORY 1_SCH=C 1 VAV TERMINAL, User-Specified Constant Minimum Air Flow Fraction, 5.00000E-002
 Component Sizing Information, AirTerminal:SingleDuct:VAV:HeatAndCool:NoReheat, ALL_ST=SALES AREA_FL=BUILDING STORY 1_SCH=C 1 VAV TERMINAL, Design Size Minimum Air Flow Rate [m3/s], 4.49704E-002
 Component Sizing Information, ZoneHVAC:EnergyRecoveryVentilator, ALL_ST=SALES AREA_FL=BUILDING STORY 1_SCH=C 2 ERV DOAS, Design Size Supply Air Flow Rate [m3/s], 0.40705
 Component Sizing Information, Fan:OnOff, ALL_ST=SALES AREA_FL=BUILDING STORY 1_SCH=C 2 ERV SUP FAN, Design Size Maximum Flow Rate [m3/s], 0.40705
 Component Sizing Information, Fan:OnOff, ALL_ST=SALES AREA_FL=BUILDING STORY 1_SCH=C 2 ERV EXH FAN, Design Size Maximum Flow Rate [m3/s], 0.40705
 Component Sizing Information, HeatExchanger:AirToAir:SensibleAndLatent, ALL_ST=SALES AREA_FL=BUILDING STORY 1_SCH=C 2 ERV HX, Design Size Nominal Supply Air Flow Rate [m3/s], 0.40705
 Component Sizing Information, ZoneHVAC:EnergyRecoveryVentilator, ALL_ST=SALES AREA_FL=BUILDING STORY 1_SCH=C 2 ERV DOAS, Design Size Exhaust Air Flow Rate [m3/s], 0.40705
 Component Sizing Information, ZoneHVAC:Baseboard:Convective:Water, ZONE HVAC BASEBOARD CONVECTIVE WATER 3, Design Size Maximum Water Flow Rate [m3/s], 1.73819E-004
 Component Sizing Information, ZoneHVAC:Baseboard:Convective:Water, ZONE HVAC BASEBOARD CONVECTIVE WATER 3, Design Size U-Factor Times Area Value [W/K], 355.40520
 Component Sizing Information, AirTerminal:SingleDuct:VAV:HeatAndCool:NoReheat, ALL_ST=SALES AREA_FL=BUILDING STORY 1_SCH=C 2 VAV TERMINAL, Design Size Maximum Air Flow Rate [m3/s], 1.34669
 Component Sizing Information, AirTerminal:SingleDuct:VAV:HeatAndCool:NoReheat, ALL_ST=SALES AREA_FL=BUILDING STORY 1_SCH=C 2 VAV TERMINAL, Design Size Constant Minimum Air Flow Fraction, 0.19713
 Component Sizing Information, AirTerminal:SingleDuct:VAV:HeatAndCool:NoReheat, ALL_ST=SALES AREA_FL=BUILDING STORY 1_SCH=C 2 VAV TERMINAL, User-Specified Constant Minimum Air Flow Fraction, 5.00000E-002
 Component Sizing Information, AirTerminal:SingleDuct:VAV:HeatAndCool:NoReheat, ALL_ST=SALES AREA_FL=BUILDING STORY 1_SCH=C 2 VAV TERMINAL, Design Size Minimum Air Flow Rate [m3/s], 6.73343E-002
 Component Sizing Information, AirLoopHVAC, SYS_3_PSZ ALL_ST=SALES AREA_FL=BUILDING STORY 1_SCH=C, Sum of Air Terminal Maximum Heating Flow Rates [m3/s], 0.13111
 Component Sizing Information, AirLoopHVAC, SYS_3_PSZ ALL_ST=SALES AREA_FL=BUILDING STORY 1_SCH=C, Sum of Air Terminal Minimum Heating Flow Rates [m3/s], 0.13111
 Component Sizing Information, AirLoopHVAC, SYS_3_PSZ ALL_ST=SALES AREA_FL=BUILDING STORY 1_SCH=C, Sum of Air Terminal Maximum Flow Rates [m3/s], 2.62221
 Component Sizing Information, AirLoopHVAC, SYS_3_PSZ ALL_ST=SALES AREA_FL=BUILDING STORY 1_SCH=C, Adjusted Heating Design Air Flow Rate [m3/s], 1.83175
 Component Sizing Information, AirLoopHVAC, SYS_3_PSZ ALL_ST=SALES AREA_FL=BUILDING STORY 1_SCH=C, Adjusted Cooling Design Air Flow Rate [m3/s], 2.62221
 Component Sizing Information, AirLoopHVAC, SYS_3_PSZ ALL_ST=SALES AREA_FL=BUILDING STORY 1_SCH=C, Adjusted Main Design Air Flow Rate [m3/s], 2.62221
 Component Sizing Information, AirLoopHVAC, SYS_3_PSZ ALL_ST=SALES AREA_FL=BUILDING STORY 1_SCH=C, User Heating Air Flow Ratio [], 1.00000
 Component Sizing Information, AirLoopHVAC, SYS_3_PSZ ALL_ST=SALES AREA_FL=BUILDING STORY 1_SCH=C, Calculated Heating Air Flow Ratio [], 0.69855
 Component Sizing Information, AirLoopHVAC, SYS_3_PSZ ALL_ST=SALES AREA_FL=BUILDING STORY 1_SCH=C 1, Sum of Air Terminal Maximum Heating Flow Rates [m3/s], 4.49704E-002
 Component Sizing Information, AirLoopHVAC, SYS_3_PSZ ALL_ST=SALES AREA_FL=BUILDING STORY 1_SCH=C 1, Sum of Air Terminal Minimum Heating Flow Rates [m3/s], 4.49704E-002
 Component Sizing Information, AirLoopHVAC, SYS_3_PSZ ALL_ST=SALES AREA_FL=BUILDING STORY 1_SCH=C 1, Sum of Air Terminal Maximum Flow Rates [m3/s], 0.89941
 Component Sizing Information, AirLoopHVAC, SYS_3_PSZ ALL_ST=SALES AREA_FL=BUILDING STORY 1_SCH=C 1, Adjusted Heating Design Air Flow Rate [m3/s], 0.29812
 Component Sizing Information, AirLoopHVAC, SYS_3_PSZ ALL_ST=SALES AREA_FL=BUILDING STORY 1_SCH=C 1, Adjusted Cooling Design Air Flow Rate [m3/s], 0.89941
 Component Sizing Information, AirLoopHVAC, SYS_3_PSZ ALL_ST=SALES AREA_FL=BUILDING STORY 1_SCH=C 1, Adjusted Main Design Air Flow Rate [m3/s], 0.89941
 Component Sizing Information, AirLoopHVAC, SYS_3_PSZ ALL_ST=SALES AREA_FL=BUILDING STORY 1_SCH=C 1, User Heating Air Flow Ratio [], 1.00000
 Component Sizing Information, AirLoopHVAC, SYS_3_PSZ ALL_ST=SALES AREA_FL=BUILDING STORY 1_SCH=C 1, Calculated Heating Air Flow Ratio [], 0.33147
 Component Sizing Information, AirLoopHVAC, SYS_3_PSZ ALL_ST=SALES AREA_FL=BUILDING STORY 1_SCH=C 2, Sum of Air Terminal Maximum Heating Flow Rates [m3/s], 6.73343E-002
 Component Sizing Information, AirLoopHVAC, SYS_3_PSZ ALL_ST=SALES AREA_FL=BUILDING STORY 1_SCH=C 2, Sum of Air Terminal Minimum Heating Flow Rates [m3/s], 6.73343E-002
 Component Sizing Information, AirLoopHVAC, SYS_3_PSZ ALL_ST=SALES AREA_FL=BUILDING STORY 1_SCH=C 2, Sum of Air Terminal Maximum Flow Rates [m3/s], 1.34669
 Component Sizing Information, AirLoopHVAC, SYS_3_PSZ ALL_ST=SALES AREA_FL=BUILDING STORY 1_SCH=C 2, Adjusted Heating Design Air Flow Rate [m3/s], 0.43246
 Component Sizing Information, AirLoopHVAC, SYS_3_PSZ ALL_ST=SALES AREA_FL=BUILDING STORY 1_SCH=C 2, Adjusted Cooling Design Air Flow Rate [m3/s], 1.34669
 Component Sizing Information, AirLoopHVAC, SYS_3_PSZ ALL_ST=SALES AREA_FL=BUILDING STORY 1_SCH=C 2, Adjusted Main Design Air Flow Rate [m3/s], 1.34669
 Component Sizing Information, AirLoopHVAC, SYS_3_PSZ ALL_ST=SALES AREA_FL=BUILDING STORY 1_SCH=C 2, User Heating Air Flow Ratio [], 1.00000
 Component Sizing Information, AirLoopHVAC, SYS_3_PSZ ALL_ST=SALES AREA_FL=BUILDING STORY 1_SCH=C 2, Calculated Heating Air Flow Ratio [], 0.32113
 Component Sizing Information, AirLoopHVAC, SYS_3_PSZ ALL_ST=SALES AREA_FL=BUILDING STORY 1_SCH=C, Design Supply Air Flow Rate [m3/s], 2.62221
 Component Sizing Information, AirLoopHVAC, SYS_3_PSZ ALL_ST=SALES AREA_FL=BUILDING STORY 1_SCH=C 1, Design Supply Air Flow Rate [m3/s], 0.89941
 Component Sizing Information, AirLoopHVAC, SYS_3_PSZ ALL_ST=SALES AREA_FL=BUILDING STORY 1_SCH=C 2, Design Supply Air Flow Rate [m3/s], 1.34669
!<Controller:MechanicalVentilation>,Name,Availability Schedule Name,Demand Controlled Ventilation {Yes/No},System Outdoor Air Method,Zone Maximum Outdoor Air Fraction,Number of Zones,Zone Name,DSOA Name,DSZAD Name
 Controller:MechanicalVentilation,CONTROLLER MECHANICAL VENTILATION 1,SYS_3_PSZ ALL_ST=SALES AREA_FL=BUILDING STORY 1_SCH=C OCC SCH,No,ZoneSum,1.00,1,ALL_ST=SALES AREA_FL=BUILDING STORY 1_SCH=C,SPACE FUNCTION SALES AREA VENTILATION,ALL_ST=SALES AREA_FL=BUILDING STORY 1_SCH=C DESIGN SPEC ZONE AIR DIST
 Controller:MechanicalVentilation,CONTROLLER MECHANICAL VENTILATION 2,SYS_3_PSZ ALL_ST=SALES AREA_FL=BUILDING STORY 1_SCH=C 1 OCC SCH,No,ZoneSum,1.00,1,ALL_ST=SALES AREA_FL=BUILDING STORY 1_SCH=C 1,SPACE FUNCTION SALES AREA VENTILATION,ALL_ST=SALES AREA_FL=BUILDING STORY 1_SCH=C 1 DESIGN SPEC ZONE AIR DIST
 Controller:MechanicalVentilation,CONTROLLER MECHANICAL VENTILATION 3,SYS_3_PSZ ALL_ST=SALES AREA_FL=BUILDING STORY 1_SCH=C 2 OCC SCH,No,ZoneSum,1.00,1,ALL_ST=SALES AREA_FL=BUILDING STORY 1_SCH=C 2,SPACE FUNCTION SALES AREA VENTILATION,ALL_ST=SALES AREA_FL=BUILDING STORY 1_SCH=C 2 DESIGN SPEC ZONE AIR DIST
 Component Sizing Information, HeatExchanger:AirToAir:SensibleAndLatent, SYS_3_PSZ ALL_ST=SALES AREA_FL=BUILDING STORY 1_SCH=C ERV, Design Size Nominal Supply Air Flow Rate [m3/s], 1.83175
 Component Sizing Information, Coil:Cooling:DX:SingleSpeed, COIL COOLING DX SINGLE SPEED 1 462KBTU/HR 8.21EER, Design Size Rated Air Flow Rate [m3/s], 2.62221
 Component Sizing Information, Coil:Cooling:DX:SingleSpeed, COIL COOLING DX SINGLE SPEED 1 462KBTU/HR 8.21EER, Design Size Gross Rated Total Cooling Capacity [W], 65115.80342
 Component Sizing Information, Coil:Cooling:DX:SingleSpeed, COIL COOLING DX SINGLE SPEED 1 462KBTU/HR 8.21EER, Design Size Gross Rated Sensible Heat Ratio, 0.69808
! <DX Cooling Coil Standard Rating Information>, Component Type, Component Name, Standard Rating (Net) Cooling Capacity {W}, Standard Rated Net COP {W/W}, EER {Btu/W-h}, SEER {Btu/W-h}, IEER {Btu/W-h}
 DX Cooling Coil Standard Rating Information, Coil:Cooling:DX:SingleSpeed, COIL COOLING DX SINGLE SPEED 1 462KBTU/HR 8.21EER, 63072.2, 2.72, 9.27, 9.81, 9.62
 Component Sizing Information, Coil:Heating:Fuel, COIL HEATING GAS 1, Design Size Nominal Capacity [W], 147539.57185
 Component Sizing Information, Fan:VariableVolume, FAN VARIABLE VOLUME 3, Design Size Maximum Flow Rate [m3/s], 2.62221
 Component Sizing Information, HeatExchanger:AirToAir:SensibleAndLatent, SYS_3_PSZ ALL_ST=SALES AREA_FL=BUILDING STORY 1_SCH=C 1 ERV, Design Size Nominal Supply Air Flow Rate [m3/s], 0.20353
 Component Sizing Information, Coil:Cooling:DX:SingleSpeed, COIL COOLING DX SINGLE SPEED 2 91KBTU/HR 9.26EER, Design Size Rated Air Flow Rate [m3/s], 0.89941
 Component Sizing Information, Coil:Cooling:DX:SingleSpeed, COIL COOLING DX SINGLE SPEED 2 91KBTU/HR 9.26EER, Design Size Gross Rated Total Cooling Capacity [W], 16263.47058
 Component Sizing Information, Coil:Cooling:DX:SingleSpeed, COIL COOLING DX SINGLE SPEED 2 91KBTU/HR 9.26EER, Design Size Gross Rated Sensible Heat Ratio, 0.80057
 DX Cooling Coil Standard Rating Information, Coil:Cooling:DX:SingleSpeed, COIL COOLING DX SINGLE SPEED 2 91KBTU/HR 9.26EER, 15564.0, 2.69, 9.18, 9.70, 9.27
 Component Sizing Information, Coil:Heating:Fuel, COIL HEATING GAS 2, Design Size Nominal Capacity [W], 31508.15038
 Component Sizing Information, Fan:VariableVolume, FAN VARIABLE VOLUME 1, Design Size Maximum Flow Rate [m3/s], 0.89941
 Component Sizing Information, HeatExchanger:AirToAir:SensibleAndLatent, SYS_3_PSZ ALL_ST=SALES AREA_FL=BUILDING STORY 1_SCH=C 2 ERV, Design Size Nominal Supply Air Flow Rate [m3/s], 0.40705
 Component Sizing Information, Coil:Cooling:DX:SingleSpeed, COIL COOLING DX SINGLE SPEED 3 147KBTU/HR 9.08EER, Design Size Rated Air Flow Rate [m3/s], 1.34669
 Component Sizing Information, Coil:Cooling:DX:SingleSpeed, COIL COOLING DX SINGLE SPEED 3 147KBTU/HR 9.08EER, Design Size Gross Rated Total Cooling Capacity [W], 29362.45956
 Component Sizing Information, Coil:Cooling:DX:SingleSpeed, COIL COOLING DX SINGLE SPEED 3 147KBTU/HR 9.08EER, Design Size Gross Rated Sensible Heat Ratio, 0.74013
 DX Cooling Coil Standard Rating Information, Coil:Cooling:DX:SingleSpeed, COIL COOLING DX SINGLE SPEED 3 147KBTU/HR 9.08EER, 28313.9, 2.75, 9.39, 9.92, 9.63
 Component Sizing Information, Coil:Heating:Fuel, COIL HEATING GAS 3, Design Size Nominal Capacity [W], 52872.21699
 Component Sizing Information, Fan:VariableVolume, FAN VARIABLE VOLUME 2, Design Size Maximum Flow Rate [m3/s], 1.34669
 Component Sizing Information, Coil:WaterHeating:AirToWaterHeatPump:Pumped, COIL WATER HEATING AIR TO WATER HEAT PUMP 1, Design Size Rated Evaporator Air Flow Rate [m3/s], 0.13319
 Component Sizing Information, Coil:WaterHeating:AirToWaterHeatPump:Pumped, COIL WATER HEATING AIR TO WATER HEAT PUMP 1, Design Size Rated Condenser Water Flow Rate [m3/s], 1.18690E-004
 Component Sizing Information, Fan:OnOff, FAN ON OFF 1, Design Size Maximum Flow Rate [m3/s], 0.13319
Heat Pump Water Heater Information,WaterHeater:HeatPump:PumpedCondenser,13GAL NATURALGAS WATER HEATER - 9KBTU/HR 0.82 THERM EFF ASHPWH,5.0625E-002,2166.1,3.069,2.8313,1701
 Component Sizing Information, WaterHeater:HeatPump:PumpedCondenser, 13GAL NATURALGAS WATER HEATER - 9KBTU/HR 0.82 THERM EFF ASHPWH, Condenser water flow rate [m3/s], 1.18690E-004
 Component Sizing Information, WaterHeater:HeatPump:PumpedCondenser, 13GAL NATURALGAS WATER HEATER - 9KBTU/HR 0.82 THERM EFF ASHPWH, Evaporator air flow rate [m3/s], 0.13319
 Component Sizing Information, PlantLoop, HOT WATER LOOP, Maximum Loop Flow Rate [m3/s], 9.66197E-004
 Component Sizing Information, PlantLoop, HOT WATER LOOP, Plant Loop Volume [m3], 0.11594
 Component Sizing Information, Pump:VariableSpeed, PUMP VARIABLE SPEED 1, Design Flow Rate [m3/s], 9.66197E-004
 Component Sizing Information, Pump:VariableSpeed, PUMP VARIABLE SPEED 1, Design Power Consumption [W], 290.78656
 Component Sizing Information, Boiler:HotWater, PRIMARY BOILER 355KBTU/HR 0.83 THERMAL EFF, Design Size Nominal Capacity [W], 64940.34503
 Component Sizing Information, Boiler:HotWater, PRIMARY BOILER 355KBTU/HR 0.83 THERMAL EFF, User-Specified Nominal Capacity [W], 104140.57850
 Component Sizing Information, Boiler:HotWater, PRIMARY BOILER 355KBTU/HR 0.83 THERMAL EFF, Design Size Design Water Flow Rate [m3/s], 9.66197E-004
 Component Sizing Information, Boiler:HotWater, SECONDARY BOILER 0KBTU/HR 0.85 AFUE, Design Size Nominal Capacity [W], 64940.34503
 Component Sizing Information, Boiler:HotWater, SECONDARY BOILER 0KBTU/HR 0.85 AFUE, User-Specified Nominal Capacity [W], 1.00000E-003
 Component Sizing Information, Boiler:HotWater, SECONDARY BOILER 0KBTU/HR 0.85 AFUE, Design Size Design Water Flow Rate [m3/s], 9.66197E-004
 Component Sizing Information, PlantLoop, MAIN SERVICE WATER LOOP, Maximum Loop Flow Rate [m3/s], 1.48029E-005
 Component Sizing Information, PlantLoop, MAIN SERVICE WATER LOOP, Plant Loop Volume [m3], 1.77635E-003
 Component Sizing Information, Pump:ConstantSpeed, SERVICE WATER LOOP PUMP, Design Flow Rate [m3/s], 1.48029E-005
 Component Sizing Information, Pump:ConstantSpeed, SERVICE WATER LOOP PUMP, Design Power Consumption [W], 4.06574E-003
 Component Sizing Information, WaterHeater:Mixed, 13GAL NATURALGAS WATER HEATER - 9KBTU/HR 0.82 THERM EFF, Use Side Design Flow Rate [m3/s], 1.48029E-005
! <Environment>,Environment Name,Environment Type, Start Date, End Date, Start DayOfWeek, Duration {#days}, Source:Start DayOfWeek,  Use Daylight Saving, Use Holidays, Apply Weekend Holiday Rule,  Use Rain Values, Use Snow Values
! <Environment:Special Days>, Special Day Name, Special Day Type, Source, Start Date, Duration {#days}
! <Environment:Daylight Saving>, Daylight Saving Indicator, Source, Start Date, End Date
! <Environment:WarmupDays>, NumberofWarmupDays
Environment,RUN PERIOD 1,WeatherFileRunPeriod,01/01,12/31,Sunday,365,Use RunPeriod Specified Day,No,No,No,Yes,Yes
Environment:Daylight Saving,No,RunPeriod Object
Environment:WarmupDays,  6
! <Tabular Report>,Style,Unit Conversion
Tabular Report,HTML,None
! <Warmup Convergence Information>,Zone Name,Environment Type/Name,Average Warmup Temperature Difference {deltaC},Std Dev Warmup Temperature Difference {deltaC},Max Temperature Pass/Fail Convergence,Min Temperature Pass/Fail Convergence,Average Warmup Load Difference {W},Std Dev Warmup Load Difference {W},Heating Load Pass/Fail Convergence,Cooling Load Pass/Fail Convergence
 Warmup Convergence Information,ALL_ST=SALES AREA_FL=BUILDING STORY 1_SCH=C,RunPeriod: RUN PERIOD 1,9.2174552801E-002,0.2099466105,Pass,Pass,16.2918747349,137.1721358215,Pass,Pass
 Warmup Convergence Information,ALL_ST=SALES AREA_FL=BUILDING STORY 1_SCH=C 1,RunPeriod: RUN PERIOD 1,8.1047767522E-002,0.2399659318,Pass,Pass,1.6823492556,9.1703080749,Pass,Pass
 Warmup Convergence Information,ALL_ST=SALES AREA_FL=BUILDING STORY 1_SCH=C 2,RunPeriod: RUN PERIOD 1,8.5477333722E-002,0.2456397102,Pass,Pass,1.2359423075,6.1505288652,Pass,Pass
! <Program Control Information:Threads/Parallel Sims>, Threading Supported,Maximum Number of Threads, Env Set Threads (OMP_NUM_THREADS), EP Env Set Threads (EP_OMP_NUM_THREADS), IDF Set Threads, Number of Threads Used (Interior Radiant Exchange), Number Nominal Surfaces, Number Parallel Sims
Program Control:Threads/Parallel Sims, No,1, N/A, N/A, N/A, N/A, N/A, N/A
End of Data
