{
   "completed_at" : "20180606T170410Z",
   "completed_status" : "Success",
   "created_at" : "20180606T170352Z",
   "current_step" : 0,
   "eplusout_err" : "Program Version,EnergyPlus, Version 8.9.0-497bb3e71c, YMD=2018.06.06 17:04,\n   ** Warning ** CheckEnvironmentSpecifications: SimulationControl specified doing design day simulations, but no design environments specified.\n   **   ~~~   ** ...No design environment results produced. For these results, add appropriate SizingPeriod:* objects for your simulation.\n   ** Warning ** ProcessScheduleInput: ScheduleTypeLimits=\"CONTROLMODE\", Unit Type=\"CONTROLMODE\" is invalid.\n   ** Warning ** ProcessScheduleInput: ScheduleTypeLimits=\"LINEARPOWERDENSITY\", Unit Type=\"LINEARPOWERDENSITY\" is invalid.\n   ** Warning ** ProcessScheduleInput: ScheduleTypeLimits=\"VOLUMETRICFLOWRATE\", Unit Type=\"VOLUMETRICFLOWRATE\" is invalid.\n   ** Warning ** ProcessScheduleInput: Schedule:Constant=\"ALWAYS OFF DISCRETE\", Blank Schedule Type Limits Name input -- will not be validated.\n   ** Warning ** ProcessScheduleInput: Schedule:Constant=\"ALWAYS ON CONTINUOUS\", Blank Schedule Type Limits Name input -- will not be validated.\n   ** Warning ** Output:Meter: invalid Key Name=\"GAS:FACILITY\" - not found.\n   ** Warning ** Output:Meter: invalid Key Name=\"DISTRICTCOOLING:FACILITY\" - not found.\n   ** Warning ** Output:Meter: invalid Key Name=\"DISTRICTHEATING:FACILITY\" - not found.\n   ** Warning ** Output:Meter:MeterFileOnly: invalid Key Name=\"GAS:FACILITY\" - not found.\n   ** Warning ** Output:Meter:MeterFileOnly requested for \"Electricity:Facility\" (TimeStep), already on \"Output:Meter\". Will report to both eplusout.eso and eplusout.mtr\n   ************* Testing Individual Branch Integrity\n   ************* All Branches passed integrity testing\n   ************* Testing Individual Supply Air Path Integrity\n   ************* All Supply Air Paths passed integrity testing\n   ************* Testing Individual Return Air Path Integrity\n   ************* All Return Air Paths passed integrity testing\n   ************* No node connection errors were found.\n   ************* Beginning Simulation\n   ** Warning ** ManageSimulation: SizingPeriod:* were requested in SimulationControl but no SizingPeriod:* objects in input.\n   ************* Simulation Error Summary *************\n   ** Warning ** The following Report Variables were requested but not generated -- check.rdd file\n   **   ~~~   ** Either the IDF did not contain these elements, the variable name is misspelled,\n   **   ~~~   ** or the requested variable is an advanced output which requires Output : Diagnostics, DisplayAdvancedReportVariables;\n   ************* Key=*, VarName=ZONE AIR RELATIVE HUMIDITY, Frequency=Hourly\n   ************* Key=*, VarName=ZONE AIR TEMPERATURE, Frequency=Hourly\n   ************* Key=*, VarName=ZONE AIR RELATIVE HUMIDITY, Frequency=Daily\n   ************* There are 9 unused objects in input.\n   ************* Use Output:Diagnostics,DisplayUnusedObjects; to see them.\n   ************* There are 3 unused schedules in input.\n   ************* There are 3 unused week schedules in input.\n   ************* There are 4 unused day schedules in input.\n   ************* Use Output:Diagnostics,DisplayUnusedSchedules; to see them.\n   ************* EnergyPlus Warmup Error Summary. During Warmup: 0 Warning; 0 Severe Errors.\n   ************* EnergyPlus Sizing Error Summary. During Sizing: 0 Warning; 0 Severe Errors.\n   ************* EnergyPlus Completed Successfully-- 13 Warning; 0 Severe Errors; Elapsed Time=00hr 00min  0.35sec\n",
   "hash" : "9A7A224F",
   "seed_file" : "/home/osdev/btap/measures/btap_open_studio_results/tests/output/no_run_period/TestOutput.osm",
   "started_at" : "20180606T170355Z",
   "steps" : [],
   "updated_at" : "20180606T170410Z",
   "weather_file" : "/home/osdev/btap/measures/btap_open_studio_results/tests/USA_CO_Golden-NREL.724666_TMY3.epw"
}
