Program Version,EnergyPlus, Version 9.1.0-fafb9d5652, YMD=2019.10.28 16:19
! <Version>, Version ID
 Version, 9.1
! <Timesteps per Hour>, #TimeSteps, Minutes per TimeStep {minutes}
 Timesteps per Hour,  6, 10
! <System Convergence Limits>, Minimum System TimeStep {minutes}, Max HVAC Iterations, Minimum Plant Iterations, Maximum Plant Iterations
 System Convergence Limits, 1, 20, 2, 8
! <Simulation Control>, Do Zone Sizing, Do System Sizing, Do Plant Sizing, Do Design Days, Do Weather Simulation, Do HVAC Sizing Simulation
 Simulation Control, Yes, Yes, Yes, Yes, No, No
! <Output Reporting Tolerances>, Tolerance for Time Heating Setpoint Not Met, Tolerance for Zone Cooling Setpoint Not Met Time
 Output Reporting Tolerances, 1.000, 1.000, 
! <Site:GroundTemperature:BuildingSurface>,Jan{C},Feb{C},Mar{C},Apr{C},May{C},Jun{C},Jul{C},Aug{C},Sep{C},Oct{C},Nov{C},Dec{C}
 Site:GroundTemperature:BuildingSurface,  18.00,  18.00,  18.00,  18.00,  18.00,  18.00,  18.00,  18.00,  18.00,  18.00,  18.00,  18.00
! <Site:GroundTemperature:FCfactorMethod>,Jan{C},Feb{C},Mar{C},Apr{C},May{C},Jun{C},Jul{C},Aug{C},Sep{C},Oct{C},Nov{C},Dec{C}
 Site:GroundTemperature:FCfactorMethod,  -5.97,  -7.23,  -4.99,  -1.50,   7.64,  14.69,  19.45,  20.90,  18.43,  12.96,   5.64,  -1.15
! <Site:GroundTemperature:Shallow>,Jan{C},Feb{C},Mar{C},Apr{C},May{C},Jun{C},Jul{C},Aug{C},Sep{C},Oct{C},Nov{C},Dec{C}
 Site:GroundTemperature:Shallow,  13.00,  13.00,  13.00,  13.00,  13.00,  13.00,  13.00,  13.00,  13.00,  13.00,  13.00,  13.00
! <Site:GroundTemperature:Deep>,Jan{C},Feb{C},Mar{C},Apr{C},May{C},Jun{C},Jul{C},Aug{C},Sep{C},Oct{C},Nov{C},Dec{C}
 Site:GroundTemperature:Deep,  16.00,  16.00,  16.00,  16.00,  16.00,  16.00,  16.00,  16.00,  16.00,  16.00,  16.00,  16.00
! <Site:GroundReflectance>,Jan{dimensionless},Feb{dimensionless},Mar{dimensionless},Apr{dimensionless},May{dimensionless},Jun{dimensionless},Jul{dimensionless},Aug{dimensionless},Sep{dimensionless},Oct{dimensionless},Nov{dimensionless},Dec{dimensionless}
 Site:GroundReflectance,  0.20,  0.20,  0.20,  0.20,  0.20,  0.20,  0.20,  0.20,  0.20,  0.20,  0.20,  0.20
! <Site:GroundReflectance:SnowModifier>, Normal, Daylighting {dimensionless}
 Site:GroundReflectance:SnowModifier,   1.000,   1.000
! <Site:GroundReflectance:Snow>,Jan{dimensionless},Feb{dimensionless},Mar{dimensionless},Apr{dimensionless},May{dimensionless},Jun{dimensionless},Jul{dimensionless},Aug{dimensionless},Sep{dimensionless},Oct{dimensionless},Nov{dimensionless},Dec{dimensionless}
 Site:GroundReflectance:Snow,  0.20,  0.20,  0.20,  0.20,  0.20,  0.20,  0.20,  0.20,  0.20,  0.20,  0.20,  0.20
! <Site:GroundReflectance:Snow:Daylighting>,Jan{dimensionless},Feb{dimensionless},Mar{dimensionless},Apr{dimensionless},May{dimensionless},Jun{dimensionless},Jul{dimensionless},Aug{dimensionless},Sep{dimensionless},Oct{dimensionless},Nov{dimensionless},Dec{dimensionless}
 Site:GroundReflectance:Snow:Daylighting,  0.20,  0.20,  0.20,  0.20,  0.20,  0.20,  0.20,  0.20,  0.20,  0.20,  0.20,  0.20
! <Environment:Weather Station>,Wind Sensor Height Above Ground {m},Wind Speed Profile Exponent {},Wind Speed Profile Boundary Layer Thickness {m},Air Temperature Sensor Height Above Ground {m},Wind Speed Modifier Coefficient-Internal,Temperature Modifier Coefficient-Internal
Environment:Weather Station,10.000,0.140,270.000,1.500,1.586,9.750E-003
! <Site:Location>, Location Name, Latitude {N+/S- Deg}, Longitude {E+/W- Deg},  Time Zone Number {GMT+/-}, Elevation {m},  Standard Pressure at Elevation {Pa}, Standard RhoAir at Elevation
Site:Location,Ottawa=Macdonald-Cartier Intl AP ON CAN CWEC2016 WMO#=716280,45.32,-75.67,-5.00,114.90,99952,1.1880
! <Site Water Mains Temperature Information>,Calculation Method{},Water Mains Temperature Schedule Name{},Annual Average Outdoor Air Temperature{C},Maximum Difference In Monthly Average Outdoor Air Temperatures{deltaC},Fixed Default Water Mains Temperature{C}
Site Water Mains Temperature Information,Correlation,NA,6.83,31.20,NA
! <Building Information>, Building Name,North Axis {deg},Terrain,  Loads Convergence Tolerance Value,Temperature Convergence Tolerance Value,  Solar Distribution,Maximum Number of Warmup Days,Minimum Number of Warmup Days
 Building Information,rectangular,0.000,Suburbs,4.00000E-002,0.40000,FullExterior,25,6
! <Inside Convection Algorithm>, Algorithm {Simple | TARP | CeilingDiffuser | AdaptiveConvectionAlgorithm}
Inside Convection Algorithm,TARP
! <Outside Convection Algorithm>, Algorithm {SimpleCombined | TARP | MoWitt | DOE-2 | AdaptiveConvectionAlgorithm}
Outside Convection Algorithm,TARP
! <Sky Radiance Distribution>, Value {Anisotropic}
Sky Radiance Distribution,Anisotropic
! <Zone Air Solution Algorithm>, Value {ThirdOrderBackwardDifference | AnalyticalSolution | EulerMethod}
 Zone Air Solution Algorithm, ThirdOrderBackwardDifference
! <Zone Air Carbon Dioxide Balance Simulation>, Simulation {Yes/No}, Carbon Dioxide Concentration
 Zone Air Carbon Dioxide Balance Simulation, No,N/A
! <Zone Air Generic Contaminant Balance Simulation>, Simulation {Yes/No}, Generic Contaminant Concentration
 Zone Air Generic Contaminant Balance Simulation, No,N/A
! <Zone Air Mass Flow Balance Simulation>, Enforce Mass Balance, Adjust Zone Mixing, Adjust Zone Infiltration {AddInfiltration | AdjustInfiltration | None}, Infiltration Zones {MixingSourceZonesOnly | AllZones}
 Zone Air Mass Flow Balance Simulation, No,N/A,N/A,N/A
! <HVACSystemRootFindingAlgorithm>, Value {RegulaFalsi | Bisection | BisectionThenRegulaFalsi | RegulaFalsiThenBisection}
 HVACSystemRootFindingAlgorithm, RegulaFalsi
! <Environment:Site Atmospheric Variation>,Wind Speed Profile Exponent {},Wind Speed Profile Boundary Layer Thickness {m},Air Temperature Gradient Coefficient {K/m}
Environment:Site Atmospheric Variation,0.220,370.000,6.500000E-003
! <Surface Geometry>,Starting Corner,Vertex Input Direction,Coordinate System,Daylight Reference Point Coordinate System,Rectangular (Simple) Surface Coordinate System
 Surface Geometry,UpperLeftCorner,Counterclockwise,RelativeCoordinateSystem,RelativeCoordinateSystem,RelativeToZoneOrigin
! <Surface Heat Transfer Algorithm>, Value {CTF - ConductionTransferFunction | EMPD - MoisturePenetrationDepthConductionTransferFunction | CondFD - ConductionFiniteDifference | HAMT - CombinedHeatAndMoistureFiniteElement} - Description,Inside Surface Max Temperature Limit{C}, Surface Convection Coefficient Lower Limit {W/m2-K}, Surface Convection Coefficient Upper Limit {W/m2-K}
Surface Heat Transfer Algorithm, CTF - ConductionTransferFunction,200,0.10,1000.0
! <Shading Summary>, Number of Fixed Detached Shades, Number of Building Detached Shades, Number of Attached Shades
 Shading Summary,0,0,0
! <Zone Summary>, Number of Zones, Number of Zone Surfaces, Number of SubSurfaces
 Zone Summary,22,159,27
! <Zone Information>,Zone Name,North Axis {deg},Origin X-Coordinate {m},Origin Y-Coordinate {m},Origin Z-Coordinate {m},Centroid X-Coordinate {m},Centroid Y-Coordinate {m},Centroid Z-Coordinate {m},Type,Zone Multiplier,Zone List Multiplier,Minimum X {m},Maximum X {m},Minimum Y {m},Maximum Y {m},Minimum Z {m},Maximum Z {m},Ceiling Height {m},Volume {m3},Zone Inside Convection Algorithm {Simple-Detailed-CeilingDiffuser-TrombeWall},Zone Outside Convection Algorithm {Simple-Detailed-Tarp-MoWitt-DOE-2-BLAST}, Floor Area {m2},Exterior Gross Wall Area {m2},Exterior Net Wall Area {m2},Exterior Window Area {m2}, Number of Surfaces, Number of SubSurfaces, Number of Shading SubSurfaces,  Part of Total Building Area
 Zone Information, SP-STORY 1 EAST CORE SPACE SYS-3 FLR-1 SCH-A HPLCMT-CORE ZN,0.0,77.12,36.27,0.00,95.71,64.48,1.60,1,1,1,77.12,111.87,1.52,111.87,0.00,3.20,3.20,10337.95,TARP,TARP,3230.61,0.00,0.00,0.00,6,0,0,Yes
 Zone Information, SP-STORY 1 EAST LEFT PERIMETER SPACE SYS-3 FLR-1 SCH-A HPLCMT-EAST ZN,0.0,36.27,36.27,0.00,37.03,74.83,1.60,1,1,1,36.27,37.80,36.27,113.39,0.00,3.20,3.20,368.49,TARP,TARP,115.15,241.90,153.12,88.78,6,1,0,Yes
 Zone Information, SP-STORY 1 EAST RIGHT PERIMETER SPACE SYS-3 FLR-1 SCH-A HPLCMT-EAST ZN,0.0,111.87,1.52,0.00,112.64,56.69,1.60,1,1,1,111.87,113.39,0.00,113.39,0.00,3.20,3.20,545.31,TARP,TARP,170.41,362.85,229.68,133.16,6,1,0,Yes
 Zone Information, SP-STORY 1 NORTH LEFT PERIMETER SPACE SYS-3 FLR-1 SCH-A HPLCMT-NORTH ZN,0.0,1.52,111.87,0.00,18.90,112.65,1.60,1,1,1,0.00,37.80,111.87,113.39,0.00,3.20,3.20,176.82,TARP,TARP,55.26,120.95,76.56,44.39,6,1,0,Yes
 Zone Information, SP-STORY 1 NORTH LOWER PERIMETER SPACE SYS-3 FLR-1 SCH-A HPLCMT-NORTH ZN,0.0,36.27,36.27,0.00,56.69,37.01,1.60,1,1,1,36.27,77.12,36.27,37.80,0.00,3.20,3.20,191.67,TARP,TARP,59.90,120.95,76.56,44.39,6,1,0,Yes
 Zone Information, SP-STORY 1 NORTH RIGHT PERIMETER SPACE SYS-3 FLR-1 SCH-A HPLCMT-NORTH ZN,0.0,77.12,111.87,0.00,94.49,112.65,1.60,1,1,1,75.59,113.39,111.87,113.39,0.00,3.20,3.20,176.82,TARP,TARP,55.26,120.95,76.56,44.39,6,1,0,Yes
 Zone Information, SP-STORY 1 SOUTH CORE SPACE SYS-3 FLR-1 SCH-A HPLCMT-CORE ZN,0.0,1.52,1.52,0.00,56.69,15.95,1.60,1,1,1,1.52,111.87,1.52,36.27,0.00,3.20,3.20,8405.88,TARP,TARP,2626.84,0.00,0.00,0.00,6,0,0,Yes
 Zone Information, SP-STORY 1 SOUTH LOWER PERIMETER SPACE SYS-3 FLR-1 SCH-A HPLCMT-SOUTH ZN,0.0,0.00,0.00,0.00,56.69,0.75,1.60,1,1,1,0.00,113.39,0.00,1.52,0.00,3.20,3.20,545.31,TARP,TARP,170.41,362.85,229.68,133.16,6,1,0,Yes
 Zone Information, SP-STORY 1 WEST CORE SPACE SYS-3 FLR-1 SCH-A HPLCMT-CORE ZN,0.0,1.52,1.52,0.00,17.68,64.48,1.60,1,1,1,1.52,36.27,1.52,111.87,0.00,3.20,3.20,10337.95,TARP,TARP,3230.61,0.00,0.00,0.00,6,0,0,Yes
 Zone Information, SP-STORY 1 WEST LEFT PERIMETER SPACE SYS-3 FLR-1 SCH-A HPLCMT-WEST ZN,0.0,0.00,0.00,0.00,0.75,56.69,1.60,1,1,1,0.00,1.52,0.00,113.39,0.00,3.20,3.20,545.31,TARP,TARP,170.41,362.85,229.68,133.16,6,1,0,Yes
 Zone Information, SP-STORY 1 WEST RIGHT PERIMETER SPACE SYS-3 FLR-1 SCH-A HPLCMT-WEST ZN,0.0,75.59,37.80,0.00,76.35,74.83,1.60,1,1,1,75.59,77.12,36.27,113.39,0.00,3.20,3.20,368.49,TARP,TARP,115.15,241.90,153.12,88.78,6,1,0,Yes
 Zone Information, SP-STORY 2 EAST CORE SPACE SYS-3 FLR-2 SCH-A HPLCMT-CORE ZN,0.0,77.12,36.27,3.20,95.71,64.48,4.80,1,1,1,77.12,111.87,1.52,111.87,3.20,6.40,3.20,10337.95,TARP,TARP,3230.61,0.00,0.00,64.61,6,1,0,Yes
 Zone Information, SP-STORY 2 EAST LEFT PERIMETER SPACE SYS-3 FLR-2 SCH-A HPLCMT-EAST ZN,0.0,36.27,36.27,3.20,37.03,74.83,4.80,1,1,1,36.27,37.80,36.27,113.39,3.20,6.40,3.20,368.49,TARP,TARP,115.15,241.90,153.12,91.08,6,2,0,Yes
 Zone Information, SP-STORY 2 EAST RIGHT PERIMETER SPACE SYS-3 FLR-2 SCH-A HPLCMT-EAST ZN,0.0,111.87,1.52,3.20,112.64,56.69,4.80,1,1,1,111.87,113.39,0.00,113.39,3.20,6.40,3.20,545.31,TARP,TARP,170.41,362.85,229.68,136.57,6,2,0,Yes
 Zone Information, SP-STORY 2 NORTH LEFT PERIMETER SPACE SYS-3 FLR-2 SCH-A HPLCMT-NORTH ZN,0.0,1.52,111.87,3.20,18.90,112.65,4.80,1,1,1,0.00,37.80,111.87,113.39,3.20,6.40,3.20,176.82,TARP,TARP,55.26,120.95,76.56,45.49,6,2,0,Yes
 Zone Information, SP-STORY 2 NORTH LOWER PERIMETER SPACE SYS-3 FLR-2 SCH-A HPLCMT-NORTH ZN,0.0,36.27,36.27,3.20,56.69,37.01,4.80,1,1,1,36.27,77.12,36.27,37.80,3.20,6.40,3.20,191.67,TARP,TARP,59.90,120.95,76.56,45.59,6,2,0,Yes
 Zone Information, SP-STORY 2 NORTH RIGHT PERIMETER SPACE SYS-3 FLR-2 SCH-A HPLCMT-NORTH ZN,0.0,77.12,111.87,3.20,94.49,112.65,4.80,1,1,1,75.59,113.39,111.87,113.39,3.20,6.40,3.20,176.82,TARP,TARP,55.26,120.95,76.56,45.49,6,2,0,Yes
 Zone Information, SP-STORY 2 SOUTH CORE SPACE SYS-3 FLR-2 SCH-A HPLCMT-CORE ZN,0.0,1.52,1.52,3.20,56.69,15.95,4.80,1,1,1,1.52,111.87,1.52,36.27,3.20,6.40,3.20,8405.88,TARP,TARP,2626.84,0.00,0.00,52.54,6,1,0,Yes
 Zone Information, SP-STORY 2 SOUTH LOWER PERIMETER SPACE SYS-3 FLR-2 SCH-A HPLCMT-SOUTH ZN,0.0,0.00,0.00,3.20,56.69,0.75,4.80,1,1,1,0.00,113.39,0.00,1.52,3.20,6.40,3.20,545.31,TARP,TARP,170.41,362.85,229.68,136.57,6,2,0,Yes
 Zone Information, SP-STORY 2 WEST CORE SPACE SYS-3 FLR-2 SCH-A HPLCMT-CORE ZN,0.0,1.52,1.52,3.20,17.68,64.48,4.80,1,1,1,1.52,36.27,1.52,111.87,3.20,6.40,3.20,10337.95,TARP,TARP,3230.61,0.00,0.00,64.61,6,1,0,Yes
 Zone Information, SP-STORY 2 WEST LEFT PERIMETER SPACE SYS-3 FLR-2 SCH-A HPLCMT-WEST ZN,0.0,0.00,0.00,3.20,0.75,56.69,4.80,1,1,1,0.00,1.52,0.00,113.39,3.20,6.40,3.20,545.31,TARP,TARP,170.41,362.85,229.68,136.57,6,2,0,Yes
 Zone Information, SP-STORY 2 WEST RIGHT PERIMETER SPACE SYS-3 FLR-2 SCH-A HPLCMT-WEST ZN,0.0,75.59,37.80,3.20,76.35,74.83,4.80,1,1,1,75.59,77.12,36.27,113.39,3.20,6.40,3.20,368.49,TARP,TARP,115.15,241.90,153.12,91.08,6,2,0,Yes
! <Zone Internal Gains Nominal>,Zone Name, Floor Area {m2},# Occupants,Area per Occupant {m2/person},Occupant per Area {person/m2},Interior Lighting {W/m2},Electric Load {W/m2},Gas Load {W/m2},Other Load {W/m2},Hot Water Eq {W/m2},Steam Equipment {W/m2},Sum Loads per Area {W/m2},Outdoor Controlled Baseboard Heat
 Zone Internal Gains Nominal, SP-STORY 1 EAST CORE SPACE SYS-3 FLR-1 SCH-A HPLCMT-CORE ZN,3230.61,129.3,24.991,4.001E-002,8.500,7.503,0.000,0.000,0.000,0.000,16.003,No
 Zone Internal Gains Nominal, SP-STORY 1 EAST LEFT PERIMETER SPACE SYS-3 FLR-1 SCH-A HPLCMT-EAST ZN,115.15,4.6,24.991,4.001E-002,8.500,7.503,0.000,0.000,0.000,0.000,16.003,No
 Zone Internal Gains Nominal, SP-STORY 1 EAST RIGHT PERIMETER SPACE SYS-3 FLR-1 SCH-A HPLCMT-EAST ZN,170.41,6.8,24.991,4.001E-002,8.500,7.503,0.000,0.000,0.000,0.000,16.003,No
 Zone Internal Gains Nominal, SP-STORY 1 NORTH LEFT PERIMETER SPACE SYS-3 FLR-1 SCH-A HPLCMT-NORTH ZN,55.26,2.2,24.991,4.001E-002,8.500,7.503,0.000,0.000,0.000,0.000,16.003,No
 Zone Internal Gains Nominal, SP-STORY 1 NORTH LOWER PERIMETER SPACE SYS-3 FLR-1 SCH-A HPLCMT-NORTH ZN,59.90,2.4,24.991,4.001E-002,8.500,7.503,0.000,0.000,0.000,0.000,16.003,No
 Zone Internal Gains Nominal, SP-STORY 1 NORTH RIGHT PERIMETER SPACE SYS-3 FLR-1 SCH-A HPLCMT-NORTH ZN,55.26,2.2,24.991,4.001E-002,8.500,7.503,0.000,0.000,0.000,0.000,16.003,No
 Zone Internal Gains Nominal, SP-STORY 1 SOUTH CORE SPACE SYS-3 FLR-1 SCH-A HPLCMT-CORE ZN,2626.84,105.1,24.991,4.001E-002,8.500,7.503,0.000,0.000,0.000,0.000,16.003,No
 Zone Internal Gains Nominal, SP-STORY 1 SOUTH LOWER PERIMETER SPACE SYS-3 FLR-1 SCH-A HPLCMT-SOUTH ZN,170.41,6.8,24.991,4.001E-002,8.500,7.503,0.000,0.000,0.000,0.000,16.003,No
 Zone Internal Gains Nominal, SP-STORY 1 WEST CORE SPACE SYS-3 FLR-1 SCH-A HPLCMT-CORE ZN,3230.61,129.3,24.991,4.001E-002,8.500,7.503,0.000,0.000,0.000,0.000,16.003,No
 Zone Internal Gains Nominal, SP-STORY 1 WEST LEFT PERIMETER SPACE SYS-3 FLR-1 SCH-A HPLCMT-WEST ZN,170.41,6.8,24.991,4.001E-002,8.500,7.503,0.000,0.000,0.000,0.000,16.003,No
 Zone Internal Gains Nominal, SP-STORY 1 WEST RIGHT PERIMETER SPACE SYS-3 FLR-1 SCH-A HPLCMT-WEST ZN,115.15,4.6,24.991,4.001E-002,8.500,7.503,0.000,0.000,0.000,0.000,16.003,No
 Zone Internal Gains Nominal, SP-STORY 2 EAST CORE SPACE SYS-3 FLR-2 SCH-A HPLCMT-CORE ZN,3230.61,129.3,24.991,4.001E-002,8.500,7.503,0.000,0.000,0.000,0.000,16.003,No
 Zone Internal Gains Nominal, SP-STORY 2 EAST LEFT PERIMETER SPACE SYS-3 FLR-2 SCH-A HPLCMT-EAST ZN,115.15,4.6,24.991,4.001E-002,8.500,7.503,0.000,0.000,0.000,0.000,16.003,No
 Zone Internal Gains Nominal, SP-STORY 2 EAST RIGHT PERIMETER SPACE SYS-3 FLR-2 SCH-A HPLCMT-EAST ZN,170.41,6.8,24.991,4.001E-002,8.500,7.503,0.000,0.000,0.000,0.000,16.003,No
 Zone Internal Gains Nominal, SP-STORY 2 NORTH LEFT PERIMETER SPACE SYS-3 FLR-2 SCH-A HPLCMT-NORTH ZN,55.26,2.2,24.991,4.001E-002,8.500,7.503,0.000,0.000,0.000,0.000,16.003,No
 Zone Internal Gains Nominal, SP-STORY 2 NORTH LOWER PERIMETER SPACE SYS-3 FLR-2 SCH-A HPLCMT-NORTH ZN,59.90,2.4,24.991,4.001E-002,8.500,7.503,0.000,0.000,0.000,0.000,16.003,No
 Zone Internal Gains Nominal, SP-STORY 2 NORTH RIGHT PERIMETER SPACE SYS-3 FLR-2 SCH-A HPLCMT-NORTH ZN,55.26,2.2,24.991,4.001E-002,8.500,7.503,0.000,0.000,0.000,0.000,16.003,No
 Zone Internal Gains Nominal, SP-STORY 2 SOUTH CORE SPACE SYS-3 FLR-2 SCH-A HPLCMT-CORE ZN,2626.84,105.1,24.991,4.001E-002,8.500,7.503,0.000,0.000,0.000,0.000,16.003,No
 Zone Internal Gains Nominal, SP-STORY 2 SOUTH LOWER PERIMETER SPACE SYS-3 FLR-2 SCH-A HPLCMT-SOUTH ZN,170.41,6.8,24.991,4.001E-002,8.500,7.503,0.000,0.000,0.000,0.000,16.003,No
 Zone Internal Gains Nominal, SP-STORY 2 WEST CORE SPACE SYS-3 FLR-2 SCH-A HPLCMT-CORE ZN,3230.61,129.3,24.991,4.001E-002,8.500,7.503,0.000,0.000,0.000,0.000,16.003,No
 Zone Internal Gains Nominal, SP-STORY 2 WEST LEFT PERIMETER SPACE SYS-3 FLR-2 SCH-A HPLCMT-WEST ZN,170.41,6.8,24.991,4.001E-002,8.500,7.503,0.000,0.000,0.000,0.000,16.003,No
 Zone Internal Gains Nominal, SP-STORY 2 WEST RIGHT PERIMETER SPACE SYS-3 FLR-2 SCH-A HPLCMT-WEST ZN,115.15,4.6,24.991,4.001E-002,8.500,7.503,0.000,0.000,0.000,0.000,16.003,No
! <People Internal Gains Nominal>,Name,Schedule Name,Zone Name,Zone Floor Area {m2},# Zone Occupants,Number of People {},People/Floor Area {person/m2},Floor Area per person {m2/person},Fraction Radiant,Fraction Convected,Sensible Fraction Calculation,Activity level,ASHRAE 55 Warnings,Carbon Dioxide Generation Rate,Nominal Minimum Number of People,Nominal Maximum Number of People
 People Internal Gains Nominal, SP-STORY 1 EAST CORE SPACE SYS-3 FLR-1 SCH-A HPLCMT-CORE ZN OFFICE WHOLEBUILDING 318 PEOPLE,NECB-A-OCCUPANCY,SP-STORY 1 EAST CORE SPACE SYS-3 FLR-1 SCH-A HPLCMT-CORE ZN,3230.61,129.3,129.3,4.001E-002,24.991,0.300,0.700,AutoCalculate,NECB-ACTIVITY,No,3.8200E-008,0,116
 People Internal Gains Nominal, SP-STORY 1 EAST LEFT PERIMETER SPACE SYS-3 FLR-1 SCH-A HPLCMT-EAST ZN OFFICE WHOLEBUILDING 318 PEOPLE,NECB-A-OCCUPANCY,SP-STORY 1 EAST LEFT PERIMETER SPACE SYS-3 FLR-1 SCH-A HPLCMT-EAST ZN,115.15,4.6,4.6,4.001E-002,24.991,0.300,0.700,AutoCalculate,NECB-ACTIVITY,No,3.8200E-008,0,4
 People Internal Gains Nominal, SP-STORY 1 EAST RIGHT PERIMETER SPACE SYS-3 FLR-1 SCH-A HPLCMT-EAST ZN OFFICE WHOLEBUILDING 318 PEOPLE,NECB-A-OCCUPANCY,SP-STORY 1 EAST RIGHT PERIMETER SPACE SYS-3 FLR-1 SCH-A HPLCMT-EAST ZN,170.41,6.8,6.8,4.001E-002,24.991,0.300,0.700,AutoCalculate,NECB-ACTIVITY,No,3.8200E-008,0,6
 People Internal Gains Nominal, SP-STORY 1 NORTH LEFT PERIMETER SPACE SYS-3 FLR-1 SCH-A HPLCMT-NORTH ZN OFFICE WHOLEBUILDING 318 PEOPLE,NECB-A-OCCUPANCY,SP-STORY 1 NORTH LEFT PERIMETER SPACE SYS-3 FLR-1 SCH-A HPLCMT-NORTH ZN,55.26,2.2,2.2,4.001E-002,24.991,0.300,0.700,AutoCalculate,NECB-ACTIVITY,No,3.8200E-008,0,2
 People Internal Gains Nominal, SP-STORY 1 NORTH LOWER PERIMETER SPACE SYS-3 FLR-1 SCH-A HPLCMT-NORTH ZN OFFICE WHOLEBUILDING 318 PEOPLE,NECB-A-OCCUPANCY,SP-STORY 1 NORTH LOWER PERIMETER SPACE SYS-3 FLR-1 SCH-A HPLCMT-NORTH ZN,59.90,2.4,2.4,4.001E-002,24.991,0.300,0.700,AutoCalculate,NECB-ACTIVITY,No,3.8200E-008,0,2
 People Internal Gains Nominal, SP-STORY 1 NORTH RIGHT PERIMETER SPACE SYS-3 FLR-1 SCH-A HPLCMT-NORTH ZN OFFICE WHOLEBUILDING 318 PEOPLE,NECB-A-OCCUPANCY,SP-STORY 1 NORTH RIGHT PERIMETER SPACE SYS-3 FLR-1 SCH-A HPLCMT-NORTH ZN,55.26,2.2,2.2,4.001E-002,24.991,0.300,0.700,AutoCalculate,NECB-ACTIVITY,No,3.8200E-008,0,2
 People Internal Gains Nominal, SP-STORY 1 SOUTH CORE SPACE SYS-3 FLR-1 SCH-A HPLCMT-CORE ZN OFFICE WHOLEBUILDING 318 PEOPLE,NECB-A-OCCUPANCY,SP-STORY 1 SOUTH CORE SPACE SYS-3 FLR-1 SCH-A HPLCMT-CORE ZN,2626.84,105.1,105.1,4.001E-002,24.991,0.300,0.700,AutoCalculate,NECB-ACTIVITY,No,3.8200E-008,0,95
 People Internal Gains Nominal, SP-STORY 1 SOUTH LOWER PERIMETER SPACE SYS-3 FLR-1 SCH-A HPLCMT-SOUTH ZN OFFICE WHOLEBUILDING 318 PEOPLE,NECB-A-OCCUPANCY,SP-STORY 1 SOUTH LOWER PERIMETER SPACE SYS-3 FLR-1 SCH-A HPLCMT-SOUTH ZN,170.41,6.8,6.8,4.001E-002,24.991,0.300,0.700,AutoCalculate,NECB-ACTIVITY,No,3.8200E-008,0,6
 People Internal Gains Nominal, SP-STORY 1 WEST CORE SPACE SYS-3 FLR-1 SCH-A HPLCMT-CORE ZN OFFICE WHOLEBUILDING 318 PEOPLE,NECB-A-OCCUPANCY,SP-STORY 1 WEST CORE SPACE SYS-3 FLR-1 SCH-A HPLCMT-CORE ZN,3230.61,129.3,129.3,4.001E-002,24.991,0.300,0.700,AutoCalculate,NECB-ACTIVITY,No,3.8200E-008,0,116
 People Internal Gains Nominal, SP-STORY 1 WEST LEFT PERIMETER SPACE SYS-3 FLR-1 SCH-A HPLCMT-WEST ZN OFFICE WHOLEBUILDING 318 PEOPLE,NECB-A-OCCUPANCY,SP-STORY 1 WEST LEFT PERIMETER SPACE SYS-3 FLR-1 SCH-A HPLCMT-WEST ZN,170.41,6.8,6.8,4.001E-002,24.991,0.300,0.700,AutoCalculate,NECB-ACTIVITY,No,3.8200E-008,0,6
 People Internal Gains Nominal, SP-STORY 1 WEST RIGHT PERIMETER SPACE SYS-3 FLR-1 SCH-A HPLCMT-WEST ZN OFFICE WHOLEBUILDING 318 PEOPLE,NECB-A-OCCUPANCY,SP-STORY 1 WEST RIGHT PERIMETER SPACE SYS-3 FLR-1 SCH-A HPLCMT-WEST ZN,115.15,4.6,4.6,4.001E-002,24.991,0.300,0.700,AutoCalculate,NECB-ACTIVITY,No,3.8200E-008,0,4
 People Internal Gains Nominal, SP-STORY 2 EAST CORE SPACE SYS-3 FLR-2 SCH-A HPLCMT-CORE ZN OFFICE WHOLEBUILDING 318 PEOPLE,NECB-A-OCCUPANCY,SP-STORY 2 EAST CORE SPACE SYS-3 FLR-2 SCH-A HPLCMT-CORE ZN,3230.61,129.3,129.3,4.001E-002,24.991,0.300,0.700,AutoCalculate,NECB-ACTIVITY,No,3.8200E-008,0,116
 People Internal Gains Nominal, SP-STORY 2 EAST LEFT PERIMETER SPACE SYS-3 FLR-2 SCH-A HPLCMT-EAST ZN OFFICE WHOLEBUILDING 318 PEOPLE,NECB-A-OCCUPANCY,SP-STORY 2 EAST LEFT PERIMETER SPACE SYS-3 FLR-2 SCH-A HPLCMT-EAST ZN,115.15,4.6,4.6,4.001E-002,24.991,0.300,0.700,AutoCalculate,NECB-ACTIVITY,No,3.8200E-008,0,4
 People Internal Gains Nominal, SP-STORY 2 EAST RIGHT PERIMETER SPACE SYS-3 FLR-2 SCH-A HPLCMT-EAST ZN OFFICE WHOLEBUILDING 318 PEOPLE,NECB-A-OCCUPANCY,SP-STORY 2 EAST RIGHT PERIMETER SPACE SYS-3 FLR-2 SCH-A HPLCMT-EAST ZN,170.41,6.8,6.8,4.001E-002,24.991,0.300,0.700,AutoCalculate,NECB-ACTIVITY,No,3.8200E-008,0,6
 People Internal Gains Nominal, SP-STORY 2 NORTH LEFT PERIMETER SPACE SYS-3 FLR-2 SCH-A HPLCMT-NORTH ZN OFFICE WHOLEBUILDING 318 PEOPLE,NECB-A-OCCUPANCY,SP-STORY 2 NORTH LEFT PERIMETER SPACE SYS-3 FLR-2 SCH-A HPLCMT-NORTH ZN,55.26,2.2,2.2,4.001E-002,24.991,0.300,0.700,AutoCalculate,NECB-ACTIVITY,No,3.8200E-008,0,2
 People Internal Gains Nominal, SP-STORY 2 NORTH LOWER PERIMETER SPACE SYS-3 FLR-2 SCH-A HPLCMT-NORTH ZN OFFICE WHOLEBUILDING 318 PEOPLE,NECB-A-OCCUPANCY,SP-STORY 2 NORTH LOWER PERIMETER SPACE SYS-3 FLR-2 SCH-A HPLCMT-NORTH ZN,59.90,2.4,2.4,4.001E-002,24.991,0.300,0.700,AutoCalculate,NECB-ACTIVITY,No,3.8200E-008,0,2
 People Internal Gains Nominal, SP-STORY 2 NORTH RIGHT PERIMETER SPACE SYS-3 FLR-2 SCH-A HPLCMT-NORTH ZN OFFICE WHOLEBUILDING 318 PEOPLE,NECB-A-OCCUPANCY,SP-STORY 2 NORTH RIGHT PERIMETER SPACE SYS-3 FLR-2 SCH-A HPLCMT-NORTH ZN,55.26,2.2,2.2,4.001E-002,24.991,0.300,0.700,AutoCalculate,NECB-ACTIVITY,No,3.8200E-008,0,2
 People Internal Gains Nominal, SP-STORY 2 SOUTH CORE SPACE SYS-3 FLR-2 SCH-A HPLCMT-CORE ZN OFFICE WHOLEBUILDING 318 PEOPLE,NECB-A-OCCUPANCY,SP-STORY 2 SOUTH CORE SPACE SYS-3 FLR-2 SCH-A HPLCMT-CORE ZN,2626.84,105.1,105.1,4.001E-002,24.991,0.300,0.700,AutoCalculate,NECB-ACTIVITY,No,3.8200E-008,0,95
 People Internal Gains Nominal, SP-STORY 2 SOUTH LOWER PERIMETER SPACE SYS-3 FLR-2 SCH-A HPLCMT-SOUTH ZN OFFICE WHOLEBUILDING 318 PEOPLE,NECB-A-OCCUPANCY,SP-STORY 2 SOUTH LOWER PERIMETER SPACE SYS-3 FLR-2 SCH-A HPLCMT-SOUTH ZN,170.41,6.8,6.8,4.001E-002,24.991,0.300,0.700,AutoCalculate,NECB-ACTIVITY,No,3.8200E-008,0,6
 People Internal Gains Nominal, SP-STORY 2 WEST CORE SPACE SYS-3 FLR-2 SCH-A HPLCMT-CORE ZN OFFICE WHOLEBUILDING 318 PEOPLE,NECB-A-OCCUPANCY,SP-STORY 2 WEST CORE SPACE SYS-3 FLR-2 SCH-A HPLCMT-CORE ZN,3230.61,129.3,129.3,4.001E-002,24.991,0.300,0.700,AutoCalculate,NECB-ACTIVITY,No,3.8200E-008,0,116
 People Internal Gains Nominal, SP-STORY 2 WEST LEFT PERIMETER SPACE SYS-3 FLR-2 SCH-A HPLCMT-WEST ZN OFFICE WHOLEBUILDING 318 PEOPLE,NECB-A-OCCUPANCY,SP-STORY 2 WEST LEFT PERIMETER SPACE SYS-3 FLR-2 SCH-A HPLCMT-WEST ZN,170.41,6.8,6.8,4.001E-002,24.991,0.300,0.700,AutoCalculate,NECB-ACTIVITY,No,3.8200E-008,0,6
 People Internal Gains Nominal, SP-STORY 2 WEST RIGHT PERIMETER SPACE SYS-3 FLR-2 SCH-A HPLCMT-WEST ZN OFFICE WHOLEBUILDING 318 PEOPLE,NECB-A-OCCUPANCY,SP-STORY 2 WEST RIGHT PERIMETER SPACE SYS-3 FLR-2 SCH-A HPLCMT-WEST ZN,115.15,4.6,4.6,4.001E-002,24.991,0.300,0.700,AutoCalculate,NECB-ACTIVITY,No,3.8200E-008,0,4
! <Lights Internal Gains Nominal>,Name,Schedule Name,Zone Name,Zone Floor Area {m2},# Zone Occupants,Lighting Level {W},Lights/Floor Area {W/m2},Lights per person {W/person},Fraction Return Air,Fraction Radiant,Fraction Short Wave,Fraction Convected,Fraction Replaceable,End-Use Category,Nominal Minimum Lighting Level {W},Nominal Maximum Lighting Level {W}
 Lights Internal Gains Nominal, SP-STORY 1 EAST CORE SPACE SYS-3 FLR-1 SCH-A HPLCMT-CORE ZN OFFICE WHOLEBUILDING 318 LIGHTS,NECB-A-LIGHTING,SP-STORY 1 EAST CORE SPACE SYS-3 FLR-1 SCH-A HPLCMT-CORE ZN,3230.61,129.3,27459.948,8.500,212.421,0.000,0.500,0.200,0.300,1.000,General,1372.997,24713.953
 Lights Internal Gains Nominal, SP-STORY 1 EAST LEFT PERIMETER SPACE SYS-3 FLR-1 SCH-A HPLCMT-EAST ZN OFFICE WHOLEBUILDING 318 LIGHTS,NECB-A-LIGHTING,SP-STORY 1 EAST LEFT PERIMETER SPACE SYS-3 FLR-1 SCH-A HPLCMT-EAST ZN,115.15,4.6,978.794,8.500,212.421,0.000,0.500,0.200,0.300,1.000,General,48.940,880.914
 Lights Internal Gains Nominal, SP-STORY 1 EAST RIGHT PERIMETER SPACE SYS-3 FLR-1 SCH-A HPLCMT-EAST ZN OFFICE WHOLEBUILDING 318 LIGHTS,NECB-A-LIGHTING,SP-STORY 1 EAST RIGHT PERIMETER SPACE SYS-3 FLR-1 SCH-A HPLCMT-EAST ZN,170.41,6.8,1448.466,8.500,212.421,0.000,0.500,0.200,0.300,1.000,General,72.423,1303.619
 Lights Internal Gains Nominal, SP-STORY 1 NORTH LEFT PERIMETER SPACE SYS-3 FLR-1 SCH-A HPLCMT-NORTH ZN OFFICE WHOLEBUILDING 318 LIGHTS,NECB-A-LIGHTING,SP-STORY 1 NORTH LEFT PERIMETER SPACE SYS-3 FLR-1 SCH-A HPLCMT-NORTH ZN,55.26,2.2,469.672,8.500,212.421,0.000,0.500,0.200,0.300,1.000,General,23.484,422.705
 Lights Internal Gains Nominal, SP-STORY 1 NORTH LOWER PERIMETER SPACE SYS-3 FLR-1 SCH-A HPLCMT-NORTH ZN OFFICE WHOLEBUILDING 318 LIGHTS,NECB-A-LIGHTING,SP-STORY 1 NORTH LOWER PERIMETER SPACE SYS-3 FLR-1 SCH-A HPLCMT-NORTH ZN,59.90,2.4,509.121,8.500,212.421,0.000,0.500,0.200,0.300,1.000,General,25.456,458.209
 Lights Internal Gains Nominal, SP-STORY 1 NORTH RIGHT PERIMETER SPACE SYS-3 FLR-1 SCH-A HPLCMT-NORTH ZN OFFICE WHOLEBUILDING 318 LIGHTS,NECB-A-LIGHTING,SP-STORY 1 NORTH RIGHT PERIMETER SPACE SYS-3 FLR-1 SCH-A HPLCMT-NORTH ZN,55.26,2.2,469.672,8.500,212.421,0.000,0.500,0.200,0.300,1.000,General,23.484,422.705
 Lights Internal Gains Nominal, SP-STORY 1 SOUTH CORE SPACE SYS-3 FLR-1 SCH-A HPLCMT-CORE ZN OFFICE WHOLEBUILDING 318 LIGHTS,NECB-A-LIGHTING,SP-STORY 1 SOUTH CORE SPACE SYS-3 FLR-1 SCH-A HPLCMT-CORE ZN,2626.84,105.1,22327.917,8.500,212.421,0.000,0.500,0.200,0.300,1.000,General,1116.396,20095.125
 Lights Internal Gains Nominal, SP-STORY 1 SOUTH LOWER PERIMETER SPACE SYS-3 FLR-1 SCH-A HPLCMT-SOUTH ZN OFFICE WHOLEBUILDING 318 LIGHTS,NECB-A-LIGHTING,SP-STORY 1 SOUTH LOWER PERIMETER SPACE SYS-3 FLR-1 SCH-A HPLCMT-SOUTH ZN,170.41,6.8,1448.466,8.500,212.421,0.000,0.500,0.200,0.300,1.000,General,72.423,1303.619
 Lights Internal Gains Nominal, SP-STORY 1 WEST CORE SPACE SYS-3 FLR-1 SCH-A HPLCMT-CORE ZN OFFICE WHOLEBUILDING 318 LIGHTS,NECB-A-LIGHTING,SP-STORY 1 WEST CORE SPACE SYS-3 FLR-1 SCH-A HPLCMT-CORE ZN,3230.61,129.3,27459.948,8.500,212.421,0.000,0.500,0.200,0.300,1.000,General,1372.997,24713.953
 Lights Internal Gains Nominal, SP-STORY 1 WEST LEFT PERIMETER SPACE SYS-3 FLR-1 SCH-A HPLCMT-WEST ZN OFFICE WHOLEBUILDING 318 LIGHTS,NECB-A-LIGHTING,SP-STORY 1 WEST LEFT PERIMETER SPACE SYS-3 FLR-1 SCH-A HPLCMT-WEST ZN,170.41,6.8,1448.466,8.500,212.421,0.000,0.500,0.200,0.300,1.000,General,72.423,1303.619
 Lights Internal Gains Nominal, SP-STORY 1 WEST RIGHT PERIMETER SPACE SYS-3 FLR-1 SCH-A HPLCMT-WEST ZN OFFICE WHOLEBUILDING 318 LIGHTS,NECB-A-LIGHTING,SP-STORY 1 WEST RIGHT PERIMETER SPACE SYS-3 FLR-1 SCH-A HPLCMT-WEST ZN,115.15,4.6,978.794,8.500,212.421,0.000,0.500,0.200,0.300,1.000,General,48.940,880.914
 Lights Internal Gains Nominal, SP-STORY 2 EAST CORE SPACE SYS-3 FLR-2 SCH-A HPLCMT-CORE ZN OFFICE WHOLEBUILDING 318 LIGHTS,NECB-A-LIGHTING,SP-STORY 2 EAST CORE SPACE SYS-3 FLR-2 SCH-A HPLCMT-CORE ZN,3230.61,129.3,27459.948,8.500,212.421,0.000,0.500,0.200,0.300,1.000,General,1372.997,24713.953
 Lights Internal Gains Nominal, SP-STORY 2 EAST LEFT PERIMETER SPACE SYS-3 FLR-2 SCH-A HPLCMT-EAST ZN OFFICE WHOLEBUILDING 318 LIGHTS,NECB-A-LIGHTING,SP-STORY 2 EAST LEFT PERIMETER SPACE SYS-3 FLR-2 SCH-A HPLCMT-EAST ZN,115.15,4.6,978.794,8.500,212.421,0.000,0.500,0.200,0.300,1.000,General,48.940,880.914
 Lights Internal Gains Nominal, SP-STORY 2 EAST RIGHT PERIMETER SPACE SYS-3 FLR-2 SCH-A HPLCMT-EAST ZN OFFICE WHOLEBUILDING 318 LIGHTS,NECB-A-LIGHTING,SP-STORY 2 EAST RIGHT PERIMETER SPACE SYS-3 FLR-2 SCH-A HPLCMT-EAST ZN,170.41,6.8,1448.466,8.500,212.421,0.000,0.500,0.200,0.300,1.000,General,72.423,1303.619
 Lights Internal Gains Nominal, SP-STORY 2 NORTH LEFT PERIMETER SPACE SYS-3 FLR-2 SCH-A HPLCMT-NORTH ZN OFFICE WHOLEBUILDING 318 LIGHTS,NECB-A-LIGHTING,SP-STORY 2 NORTH LEFT PERIMETER SPACE SYS-3 FLR-2 SCH-A HPLCMT-NORTH ZN,55.26,2.2,469.672,8.500,212.421,0.000,0.500,0.200,0.300,1.000,General,23.484,422.705
 Lights Internal Gains Nominal, SP-STORY 2 NORTH LOWER PERIMETER SPACE SYS-3 FLR-2 SCH-A HPLCMT-NORTH ZN OFFICE WHOLEBUILDING 318 LIGHTS,NECB-A-LIGHTING,SP-STORY 2 NORTH LOWER PERIMETER SPACE SYS-3 FLR-2 SCH-A HPLCMT-NORTH ZN,59.90,2.4,509.121,8.500,212.421,0.000,0.500,0.200,0.300,1.000,General,25.456,458.209
 Lights Internal Gains Nominal, SP-STORY 2 NORTH RIGHT PERIMETER SPACE SYS-3 FLR-2 SCH-A HPLCMT-NORTH ZN OFFICE WHOLEBUILDING 318 LIGHTS,NECB-A-LIGHTING,SP-STORY 2 NORTH RIGHT PERIMETER SPACE SYS-3 FLR-2 SCH-A HPLCMT-NORTH ZN,55.26,2.2,469.672,8.500,212.421,0.000,0.500,0.200,0.300,1.000,General,23.484,422.705
 Lights Internal Gains Nominal, SP-STORY 2 SOUTH CORE SPACE SYS-3 FLR-2 SCH-A HPLCMT-CORE ZN OFFICE WHOLEBUILDING 318 LIGHTS,NECB-A-LIGHTING,SP-STORY 2 SOUTH CORE SPACE SYS-3 FLR-2 SCH-A HPLCMT-CORE ZN,2626.84,105.1,22327.917,8.500,212.421,0.000,0.500,0.200,0.300,1.000,General,1116.396,20095.125
 Lights Internal Gains Nominal, SP-STORY 2 SOUTH LOWER PERIMETER SPACE SYS-3 FLR-2 SCH-A HPLCMT-SOUTH ZN OFFICE WHOLEBUILDING 318 LIGHTS,NECB-A-LIGHTING,SP-STORY 2 SOUTH LOWER PERIMETER SPACE SYS-3 FLR-2 SCH-A HPLCMT-SOUTH ZN,170.41,6.8,1448.466,8.500,212.421,0.000,0.500,0.200,0.300,1.000,General,72.423,1303.619
 Lights Internal Gains Nominal, SP-STORY 2 WEST CORE SPACE SYS-3 FLR-2 SCH-A HPLCMT-CORE ZN OFFICE WHOLEBUILDING 318 LIGHTS,NECB-A-LIGHTING,SP-STORY 2 WEST CORE SPACE SYS-3 FLR-2 SCH-A HPLCMT-CORE ZN,3230.61,129.3,27459.948,8.500,212.421,0.000,0.500,0.200,0.300,1.000,General,1372.997,24713.953
 Lights Internal Gains Nominal, SP-STORY 2 WEST LEFT PERIMETER SPACE SYS-3 FLR-2 SCH-A HPLCMT-WEST ZN OFFICE WHOLEBUILDING 318 LIGHTS,NECB-A-LIGHTING,SP-STORY 2 WEST LEFT PERIMETER SPACE SYS-3 FLR-2 SCH-A HPLCMT-WEST ZN,170.41,6.8,1448.466,8.500,212.421,0.000,0.500,0.200,0.300,1.000,General,72.423,1303.619
 Lights Internal Gains Nominal, SP-STORY 2 WEST RIGHT PERIMETER SPACE SYS-3 FLR-2 SCH-A HPLCMT-WEST ZN OFFICE WHOLEBUILDING 318 LIGHTS,NECB-A-LIGHTING,SP-STORY 2 WEST RIGHT PERIMETER SPACE SYS-3 FLR-2 SCH-A HPLCMT-WEST ZN,115.15,4.6,978.794,8.500,212.421,0.000,0.500,0.200,0.300,1.000,General,48.940,880.914
! <ElectricEquipment Internal Gains Nominal>,Name,Schedule Name,Zone Name,Zone Floor Area {m2},# Zone Occupants,Equipment Level {W},Equipment/Floor Area {W/m2},Equipment per person {W/person},Fraction Latent,Fraction Radiant,Fraction Lost,Fraction Convected,End-Use SubCategory,Nominal Minimum Equipment Level {W},Nominal Maximum Equipment Level {W}
 ElectricEquipment Internal Gains Nominal, SP-STORY 1 EAST CORE SPACE SYS-3 FLR-1 SCH-A HPLCMT-CORE ZN OFFICE WHOLEBUILDING 318 ELEC EQUIP,NECB-A-ELECTRIC-EQUIPMENT,SP-STORY 1 EAST CORE SPACE SYS-3 FLR-1 SCH-A HPLCMT-CORE ZN,3230.61,129.3,24238.382,7.503,187.500,0.000,0.500,0.000,0.500,General,4847.676,21814.543
 ElectricEquipment Internal Gains Nominal, SP-STORY 1 EAST LEFT PERIMETER SPACE SYS-3 FLR-1 SCH-A HPLCMT-EAST ZN OFFICE WHOLEBUILDING 318 ELEC EQUIP,NECB-A-ELECTRIC-EQUIPMENT,SP-STORY 1 EAST LEFT PERIMETER SPACE SYS-3 FLR-1 SCH-A HPLCMT-EAST ZN,115.15,4.6,863.963,7.503,187.500,0.000,0.500,0.000,0.500,General,172.793,777.566
 ElectricEquipment Internal Gains Nominal, SP-STORY 1 EAST RIGHT PERIMETER SPACE SYS-3 FLR-1 SCH-A HPLCMT-EAST ZN OFFICE WHOLEBUILDING 318 ELEC EQUIP,NECB-A-ELECTRIC-EQUIPMENT,SP-STORY 1 EAST RIGHT PERIMETER SPACE SYS-3 FLR-1 SCH-A HPLCMT-EAST ZN,170.41,6.8,1278.534,7.503,187.500,0.000,0.500,0.000,0.500,General,255.707,1150.680
 ElectricEquipment Internal Gains Nominal, SP-STORY 1 NORTH LEFT PERIMETER SPACE SYS-3 FLR-1 SCH-A HPLCMT-NORTH ZN OFFICE WHOLEBUILDING 318 ELEC EQUIP,NECB-A-ELECTRIC-EQUIPMENT,SP-STORY 1 NORTH LEFT PERIMETER SPACE SYS-3 FLR-1 SCH-A HPLCMT-NORTH ZN,55.26,2.2,414.571,7.503,187.500,0.000,0.500,0.000,0.500,General,82.914,373.114
 ElectricEquipment Internal Gains Nominal, SP-STORY 1 NORTH LOWER PERIMETER SPACE SYS-3 FLR-1 SCH-A HPLCMT-NORTH ZN OFFICE WHOLEBUILDING 318 ELEC EQUIP,NECB-A-ELECTRIC-EQUIPMENT,SP-STORY 1 NORTH LOWER PERIMETER SPACE SYS-3 FLR-1 SCH-A HPLCMT-NORTH ZN,59.90,2.4,449.392,7.503,187.500,0.000,0.500,0.000,0.500,General,89.878,404.453
 ElectricEquipment Internal Gains Nominal, SP-STORY 1 NORTH RIGHT PERIMETER SPACE SYS-3 FLR-1 SCH-A HPLCMT-NORTH ZN OFFICE WHOLEBUILDING 318 ELEC EQUIP,NECB-A-ELECTRIC-EQUIPMENT,SP-STORY 1 NORTH RIGHT PERIMETER SPACE SYS-3 FLR-1 SCH-A HPLCMT-NORTH ZN,55.26,2.2,414.571,7.503,187.500,0.000,0.500,0.000,0.500,General,82.914,373.114
 ElectricEquipment Internal Gains Nominal, SP-STORY 1 SOUTH CORE SPACE SYS-3 FLR-1 SCH-A HPLCMT-CORE ZN OFFICE WHOLEBUILDING 318 ELEC EQUIP,NECB-A-ELECTRIC-EQUIPMENT,SP-STORY 1 SOUTH CORE SPACE SYS-3 FLR-1 SCH-A HPLCMT-CORE ZN,2626.84,105.1,19708.434,7.503,187.500,0.000,0.500,0.000,0.500,General,3941.687,17737.590
 ElectricEquipment Internal Gains Nominal, SP-STORY 1 SOUTH LOWER PERIMETER SPACE SYS-3 FLR-1 SCH-A HPLCMT-SOUTH ZN OFFICE WHOLEBUILDING 318 ELEC EQUIP,NECB-A-ELECTRIC-EQUIPMENT,SP-STORY 1 SOUTH LOWER PERIMETER SPACE SYS-3 FLR-1 SCH-A HPLCMT-SOUTH ZN,170.41,6.8,1278.534,7.503,187.500,0.000,0.500,0.000,0.500,General,255.707,1150.680
 ElectricEquipment Internal Gains Nominal, SP-STORY 1 WEST CORE SPACE SYS-3 FLR-1 SCH-A HPLCMT-CORE ZN OFFICE WHOLEBUILDING 318 ELEC EQUIP,NECB-A-ELECTRIC-EQUIPMENT,SP-STORY 1 WEST CORE SPACE SYS-3 FLR-1 SCH-A HPLCMT-CORE ZN,3230.61,129.3,24238.382,7.503,187.500,0.000,0.500,0.000,0.500,General,4847.676,21814.543
 ElectricEquipment Internal Gains Nominal, SP-STORY 1 WEST LEFT PERIMETER SPACE SYS-3 FLR-1 SCH-A HPLCMT-WEST ZN OFFICE WHOLEBUILDING 318 ELEC EQUIP,NECB-A-ELECTRIC-EQUIPMENT,SP-STORY 1 WEST LEFT PERIMETER SPACE SYS-3 FLR-1 SCH-A HPLCMT-WEST ZN,170.41,6.8,1278.534,7.503,187.500,0.000,0.500,0.000,0.500,General,255.707,1150.680
 ElectricEquipment Internal Gains Nominal, SP-STORY 1 WEST RIGHT PERIMETER SPACE SYS-3 FLR-1 SCH-A HPLCMT-WEST ZN OFFICE WHOLEBUILDING 318 ELEC EQUIP,NECB-A-ELECTRIC-EQUIPMENT,SP-STORY 1 WEST RIGHT PERIMETER SPACE SYS-3 FLR-1 SCH-A HPLCMT-WEST ZN,115.15,4.6,863.963,7.503,187.500,0.000,0.500,0.000,0.500,General,172.793,777.566
 ElectricEquipment Internal Gains Nominal, SP-STORY 2 EAST CORE SPACE SYS-3 FLR-2 SCH-A HPLCMT-CORE ZN OFFICE WHOLEBUILDING 318 ELEC EQUIP,NECB-A-ELECTRIC-EQUIPMENT,SP-STORY 2 EAST CORE SPACE SYS-3 FLR-2 SCH-A HPLCMT-CORE ZN,3230.61,129.3,24238.382,7.503,187.500,0.000,0.500,0.000,0.500,General,4847.676,21814.543
 ElectricEquipment Internal Gains Nominal, SP-STORY 2 EAST LEFT PERIMETER SPACE SYS-3 FLR-2 SCH-A HPLCMT-EAST ZN OFFICE WHOLEBUILDING 318 ELEC EQUIP,NECB-A-ELECTRIC-EQUIPMENT,SP-STORY 2 EAST LEFT PERIMETER SPACE SYS-3 FLR-2 SCH-A HPLCMT-EAST ZN,115.15,4.6,863.963,7.503,187.500,0.000,0.500,0.000,0.500,General,172.793,777.566
 ElectricEquipment Internal Gains Nominal, SP-STORY 2 EAST RIGHT PERIMETER SPACE SYS-3 FLR-2 SCH-A HPLCMT-EAST ZN OFFICE WHOLEBUILDING 318 ELEC EQUIP,NECB-A-ELECTRIC-EQUIPMENT,SP-STORY 2 EAST RIGHT PERIMETER SPACE SYS-3 FLR-2 SCH-A HPLCMT-EAST ZN,170.41,6.8,1278.534,7.503,187.500,0.000,0.500,0.000,0.500,General,255.707,1150.680
 ElectricEquipment Internal Gains Nominal, SP-STORY 2 NORTH LEFT PERIMETER SPACE SYS-3 FLR-2 SCH-A HPLCMT-NORTH ZN OFFICE WHOLEBUILDING 318 ELEC EQUIP,NECB-A-ELECTRIC-EQUIPMENT,SP-STORY 2 NORTH LEFT PERIMETER SPACE SYS-3 FLR-2 SCH-A HPLCMT-NORTH ZN,55.26,2.2,414.571,7.503,187.500,0.000,0.500,0.000,0.500,General,82.914,373.114
 ElectricEquipment Internal Gains Nominal, SP-STORY 2 NORTH LOWER PERIMETER SPACE SYS-3 FLR-2 SCH-A HPLCMT-NORTH ZN OFFICE WHOLEBUILDING 318 ELEC EQUIP,NECB-A-ELECTRIC-EQUIPMENT,SP-STORY 2 NORTH LOWER PERIMETER SPACE SYS-3 FLR-2 SCH-A HPLCMT-NORTH ZN,59.90,2.4,449.392,7.503,187.500,0.000,0.500,0.000,0.500,General,89.878,404.453
 ElectricEquipment Internal Gains Nominal, SP-STORY 2 NORTH RIGHT PERIMETER SPACE SYS-3 FLR-2 SCH-A HPLCMT-NORTH ZN OFFICE WHOLEBUILDING 318 ELEC EQUIP,NECB-A-ELECTRIC-EQUIPMENT,SP-STORY 2 NORTH RIGHT PERIMETER SPACE SYS-3 FLR-2 SCH-A HPLCMT-NORTH ZN,55.26,2.2,414.571,7.503,187.500,0.000,0.500,0.000,0.500,General,82.914,373.114
 ElectricEquipment Internal Gains Nominal, SP-STORY 2 SOUTH CORE SPACE SYS-3 FLR-2 SCH-A HPLCMT-CORE ZN OFFICE WHOLEBUILDING 318 ELEC EQUIP,NECB-A-ELECTRIC-EQUIPMENT,SP-STORY 2 SOUTH CORE SPACE SYS-3 FLR-2 SCH-A HPLCMT-CORE ZN,2626.84,105.1,19708.434,7.503,187.500,0.000,0.500,0.000,0.500,General,3941.687,17737.590
 ElectricEquipment Internal Gains Nominal, SP-STORY 2 SOUTH LOWER PERIMETER SPACE SYS-3 FLR-2 SCH-A HPLCMT-SOUTH ZN OFFICE WHOLEBUILDING 318 ELEC EQUIP,NECB-A-ELECTRIC-EQUIPMENT,SP-STORY 2 SOUTH LOWER PERIMETER SPACE SYS-3 FLR-2 SCH-A HPLCMT-SOUTH ZN,170.41,6.8,1278.534,7.503,187.500,0.000,0.500,0.000,0.500,General,255.707,1150.680
 ElectricEquipment Internal Gains Nominal, SP-STORY 2 WEST CORE SPACE SYS-3 FLR-2 SCH-A HPLCMT-CORE ZN OFFICE WHOLEBUILDING 318 ELEC EQUIP,NECB-A-ELECTRIC-EQUIPMENT,SP-STORY 2 WEST CORE SPACE SYS-3 FLR-2 SCH-A HPLCMT-CORE ZN,3230.61,129.3,24238.382,7.503,187.500,0.000,0.500,0.000,0.500,General,4847.676,21814.543
 ElectricEquipment Internal Gains Nominal, SP-STORY 2 WEST LEFT PERIMETER SPACE SYS-3 FLR-2 SCH-A HPLCMT-WEST ZN OFFICE WHOLEBUILDING 318 ELEC EQUIP,NECB-A-ELECTRIC-EQUIPMENT,SP-STORY 2 WEST LEFT PERIMETER SPACE SYS-3 FLR-2 SCH-A HPLCMT-WEST ZN,170.41,6.8,1278.534,7.503,187.500,0.000,0.500,0.000,0.500,General,255.707,1150.680
 ElectricEquipment Internal Gains Nominal, SP-STORY 2 WEST RIGHT PERIMETER SPACE SYS-3 FLR-2 SCH-A HPLCMT-WEST ZN OFFICE WHOLEBUILDING 318 ELEC EQUIP,NECB-A-ELECTRIC-EQUIPMENT,SP-STORY 2 WEST RIGHT PERIMETER SPACE SYS-3 FLR-2 SCH-A HPLCMT-WEST ZN,115.15,4.6,863.963,7.503,187.500,0.000,0.500,0.000,0.500,General,172.793,777.566
! <Shadowing/Sun Position Calculations Annual Simulations>, Calculation Method, Value {days}, Allowable Number Figures in Shadow Overlap {}, Polygon Clipping Algorithm, Sky Diffuse Modeling Algorithm, External Shading Calculation Method, Output External Shading Calculation Results, Disable Self-Shading Within Shading Zone Groups, Disable Self-Shading From Shading Zone Groups to Other Zones
Shadowing/Sun Position Calculations Annual Simulations,AverageOverDaysInFrequency,20,15000,SutherlandHodgman,SimpleSkyDiffuseModeling,InternalCalculation,No,No,No
! <ZoneInfiltration Airflow Stats Nominal>,Name,Schedule Name,Zone Name, Zone Floor Area {m2}, # Zone Occupants,Design Volume Flow Rate {m3/s},Volume Flow Rate/Floor Area {m3/s-m2},Volume Flow Rate/Exterior Surface Area {m3/s-m2},ACH - Air Changes per Hour,Equation A - Constant Term Coefficient {},Equation B - Temperature Term Coefficient {1/C},Equation C - Velocity Term Coefficient {s/m}, Equation D - Velocity Squared Term Coefficient {s2/m2}
 ZoneInfiltration Airflow Stats Nominal, STORY 1 EAST LEFT PERIMETER SPACE INFILTRATION,ALWAYS ON DISCRETE,SP-STORY 1 EAST LEFT PERIMETER SPACE SYS-3 FLR-1 SCH-A HPLCMT-EAST ZN,115.15,4.6,6.047E-002,5.252E-004,2.500E-004,0.591,0.000,0.000,0.224,0.000
 ZoneInfiltration Airflow Stats Nominal, STORY 1 EAST RIGHT PERIMETER SPACE INFILTRATION,ALWAYS ON DISCRETE,SP-STORY 1 EAST RIGHT PERIMETER SPACE SYS-3 FLR-1 SCH-A HPLCMT-EAST ZN,170.41,6.8,9.071E-002,5.323E-004,2.500E-004,0.599,0.000,0.000,0.224,0.000
 ZoneInfiltration Airflow Stats Nominal, STORY 1 NORTH LEFT PERIMETER SPACE INFILTRATION,ALWAYS ON DISCRETE,SP-STORY 1 NORTH LEFT PERIMETER SPACE SYS-3 FLR-1 SCH-A HPLCMT-NORTH ZN,55.26,2.2,3.024E-002,5.472E-004,2.500E-004,0.616,0.000,0.000,0.224,0.000
 ZoneInfiltration Airflow Stats Nominal, STORY 1 NORTH LOWER PERIMETER SPACE INFILTRATION,ALWAYS ON DISCRETE,SP-STORY 1 NORTH LOWER PERIMETER SPACE SYS-3 FLR-1 SCH-A HPLCMT-NORTH ZN,59.90,2.4,3.024E-002,5.048E-004,2.500E-004,0.568,0.000,0.000,0.224,0.000
 ZoneInfiltration Airflow Stats Nominal, STORY 1 NORTH RIGHT PERIMETER SPACE INFILTRATION,ALWAYS ON DISCRETE,SP-STORY 1 NORTH RIGHT PERIMETER SPACE SYS-3 FLR-1 SCH-A HPLCMT-NORTH ZN,55.26,2.2,3.024E-002,5.472E-004,2.500E-004,0.616,0.000,0.000,0.224,0.000
 ZoneInfiltration Airflow Stats Nominal, STORY 1 SOUTH LOWER PERIMETER SPACE INFILTRATION,ALWAYS ON DISCRETE,SP-STORY 1 SOUTH LOWER PERIMETER SPACE SYS-3 FLR-1 SCH-A HPLCMT-SOUTH ZN,170.41,6.8,9.071E-002,5.323E-004,2.500E-004,0.599,0.000,0.000,0.224,0.000
 ZoneInfiltration Airflow Stats Nominal, STORY 1 WEST LEFT PERIMETER SPACE INFILTRATION,ALWAYS ON DISCRETE,SP-STORY 1 WEST LEFT PERIMETER SPACE SYS-3 FLR-1 SCH-A HPLCMT-WEST ZN,170.41,6.8,9.071E-002,5.323E-004,2.500E-004,0.599,0.000,0.000,0.224,0.000
 ZoneInfiltration Airflow Stats Nominal, STORY 1 WEST RIGHT PERIMETER SPACE INFILTRATION,ALWAYS ON DISCRETE,SP-STORY 1 WEST RIGHT PERIMETER SPACE SYS-3 FLR-1 SCH-A HPLCMT-WEST ZN,115.15,4.6,6.047E-002,5.252E-004,2.500E-004,0.591,0.000,0.000,0.224,0.000
 ZoneInfiltration Airflow Stats Nominal, STORY 2 EAST CORE SPACE INFILTRATION,ALWAYS ON DISCRETE,SP-STORY 2 EAST CORE SPACE SYS-3 FLR-2 SCH-A HPLCMT-CORE ZN,3230.61,129.3,0.808,2.500E-004,2.500E-004,0.281,0.000,0.000,0.224,0.000
 ZoneInfiltration Airflow Stats Nominal, STORY 2 EAST LEFT PERIMETER SPACE INFILTRATION,ALWAYS ON DISCRETE,SP-STORY 2 EAST LEFT PERIMETER SPACE SYS-3 FLR-2 SCH-A HPLCMT-EAST ZN,115.15,4.6,8.926E-002,7.752E-004,2.500E-004,0.872,0.000,0.000,0.224,0.000
 ZoneInfiltration Airflow Stats Nominal, STORY 2 EAST RIGHT PERIMETER SPACE INFILTRATION,ALWAYS ON DISCRETE,SP-STORY 2 EAST RIGHT PERIMETER SPACE SYS-3 FLR-2 SCH-A HPLCMT-EAST ZN,170.41,6.8,0.133,7.823E-004,2.500E-004,0.880,0.000,0.000,0.224,0.000
 ZoneInfiltration Airflow Stats Nominal, STORY 2 NORTH LEFT PERIMETER SPACE INFILTRATION,ALWAYS ON DISCRETE,SP-STORY 2 NORTH LEFT PERIMETER SPACE SYS-3 FLR-2 SCH-A HPLCMT-NORTH ZN,55.26,2.2,4.405E-002,7.972E-004,2.500E-004,0.897,0.000,0.000,0.224,0.000
 ZoneInfiltration Airflow Stats Nominal, STORY 2 NORTH LOWER PERIMETER SPACE INFILTRATION,ALWAYS ON DISCRETE,SP-STORY 2 NORTH LOWER PERIMETER SPACE SYS-3 FLR-2 SCH-A HPLCMT-NORTH ZN,59.90,2.4,4.521E-002,7.548E-004,2.500E-004,0.849,0.000,0.000,0.224,0.000
 ZoneInfiltration Airflow Stats Nominal, STORY 2 NORTH RIGHT PERIMETER SPACE INFILTRATION,ALWAYS ON DISCRETE,SP-STORY 2 NORTH RIGHT PERIMETER SPACE SYS-3 FLR-2 SCH-A HPLCMT-NORTH ZN,55.26,2.2,4.405E-002,7.972E-004,2.500E-004,0.897,0.000,0.000,0.224,0.000
 ZoneInfiltration Airflow Stats Nominal, STORY 2 SOUTH CORE SPACE INFILTRATION,ALWAYS ON DISCRETE,SP-STORY 2 SOUTH CORE SPACE SYS-3 FLR-2 SCH-A HPLCMT-CORE ZN,2626.84,105.1,0.657,2.500E-004,2.500E-004,0.281,0.000,0.000,0.224,0.000
 ZoneInfiltration Airflow Stats Nominal, STORY 2 SOUTH LOWER PERIMETER SPACE INFILTRATION,ALWAYS ON DISCRETE,SP-STORY 2 SOUTH LOWER PERIMETER SPACE SYS-3 FLR-2 SCH-A HPLCMT-SOUTH ZN,170.41,6.8,0.133,7.823E-004,2.500E-004,0.880,0.000,0.000,0.224,0.000
 ZoneInfiltration Airflow Stats Nominal, STORY 2 WEST CORE SPACE INFILTRATION,ALWAYS ON DISCRETE,SP-STORY 2 WEST CORE SPACE SYS-3 FLR-2 SCH-A HPLCMT-CORE ZN,3230.61,129.3,0.808,2.500E-004,2.500E-004,0.281,0.000,0.000,0.224,0.000
 ZoneInfiltration Airflow Stats Nominal, STORY 2 WEST LEFT PERIMETER SPACE INFILTRATION,ALWAYS ON DISCRETE,SP-STORY 2 WEST LEFT PERIMETER SPACE SYS-3 FLR-2 SCH-A HPLCMT-WEST ZN,170.41,6.8,0.133,7.823E-004,2.500E-004,0.880,0.000,0.000,0.224,0.000
 ZoneInfiltration Airflow Stats Nominal, STORY 2 WEST RIGHT PERIMETER SPACE INFILTRATION,ALWAYS ON DISCRETE,SP-STORY 2 WEST RIGHT PERIMETER SPACE SYS-3 FLR-2 SCH-A HPLCMT-WEST ZN,115.15,4.6,8.926E-002,7.752E-004,2.500E-004,0.872,0.000,0.000,0.224,0.000
! <AirFlow Model>, Simple
 AirFlow Model, Simple
! <RoomAir Model>, Zone Name, Mixing/Mundt/UCSDDV/UCSDCV/UCSDUFI/UCSDUFE/User Defined
RoomAir Model,SP-STORY 1 EAST CORE SPACE SYS-3 FLR-1 SCH-A HPLCMT-CORE ZN,Mixing/Well-Stirred
RoomAir Model,SP-STORY 1 EAST LEFT PERIMETER SPACE SYS-3 FLR-1 SCH-A HPLCMT-EAST ZN,Mixing/Well-Stirred
RoomAir Model,SP-STORY 1 EAST RIGHT PERIMETER SPACE SYS-3 FLR-1 SCH-A HPLCMT-EAST ZN,Mixing/Well-Stirred
RoomAir Model,SP-STORY 1 NORTH LEFT PERIMETER SPACE SYS-3 FLR-1 SCH-A HPLCMT-NORTH ZN,Mixing/Well-Stirred
RoomAir Model,SP-STORY 1 NORTH LOWER PERIMETER SPACE SYS-3 FLR-1 SCH-A HPLCMT-NORTH ZN,Mixing/Well-Stirred
RoomAir Model,SP-STORY 1 NORTH RIGHT PERIMETER SPACE SYS-3 FLR-1 SCH-A HPLCMT-NORTH ZN,Mixing/Well-Stirred
RoomAir Model,SP-STORY 1 SOUTH CORE SPACE SYS-3 FLR-1 SCH-A HPLCMT-CORE ZN,Mixing/Well-Stirred
RoomAir Model,SP-STORY 1 SOUTH LOWER PERIMETER SPACE SYS-3 FLR-1 SCH-A HPLCMT-SOUTH ZN,Mixing/Well-Stirred
RoomAir Model,SP-STORY 1 WEST CORE SPACE SYS-3 FLR-1 SCH-A HPLCMT-CORE ZN,Mixing/Well-Stirred
RoomAir Model,SP-STORY 1 WEST LEFT PERIMETER SPACE SYS-3 FLR-1 SCH-A HPLCMT-WEST ZN,Mixing/Well-Stirred
RoomAir Model,SP-STORY 1 WEST RIGHT PERIMETER SPACE SYS-3 FLR-1 SCH-A HPLCMT-WEST ZN,Mixing/Well-Stirred
RoomAir Model,SP-STORY 2 EAST CORE SPACE SYS-3 FLR-2 SCH-A HPLCMT-CORE ZN,Mixing/Well-Stirred
RoomAir Model,SP-STORY 2 EAST LEFT PERIMETER SPACE SYS-3 FLR-2 SCH-A HPLCMT-EAST ZN,Mixing/Well-Stirred
RoomAir Model,SP-STORY 2 EAST RIGHT PERIMETER SPACE SYS-3 FLR-2 SCH-A HPLCMT-EAST ZN,Mixing/Well-Stirred
RoomAir Model,SP-STORY 2 NORTH LEFT PERIMETER SPACE SYS-3 FLR-2 SCH-A HPLCMT-NORTH ZN,Mixing/Well-Stirred
RoomAir Model,SP-STORY 2 NORTH LOWER PERIMETER SPACE SYS-3 FLR-2 SCH-A HPLCMT-NORTH ZN,Mixing/Well-Stirred
RoomAir Model,SP-STORY 2 NORTH RIGHT PERIMETER SPACE SYS-3 FLR-2 SCH-A HPLCMT-NORTH ZN,Mixing/Well-Stirred
RoomAir Model,SP-STORY 2 SOUTH CORE SPACE SYS-3 FLR-2 SCH-A HPLCMT-CORE ZN,Mixing/Well-Stirred
RoomAir Model,SP-STORY 2 SOUTH LOWER PERIMETER SPACE SYS-3 FLR-2 SCH-A HPLCMT-SOUTH ZN,Mixing/Well-Stirred
RoomAir Model,SP-STORY 2 WEST CORE SPACE SYS-3 FLR-2 SCH-A HPLCMT-CORE ZN,Mixing/Well-Stirred
RoomAir Model,SP-STORY 2 WEST LEFT PERIMETER SPACE SYS-3 FLR-2 SCH-A HPLCMT-WEST ZN,Mixing/Well-Stirred
RoomAir Model,SP-STORY 2 WEST RIGHT PERIMETER SPACE SYS-3 FLR-2 SCH-A HPLCMT-WEST ZN,Mixing/Well-Stirred
! <AirflowNetwork Model:Control>, No Multizone or Distribution/Multizone with Distribution/Multizone without Distribution/Multizone with Distribution only during Fan Operation
AirflowNetwork Model:Control,NoMultizoneOrDistribution
! <Zone Volume Capacitance Multiplier>, Sensible Heat Capacity Multiplier, Moisture Capacity Multiplier, Carbon Dioxide Capacity Multiplier, Generic Contaminant Capacity Multiplier
Zone Volume Capacitance Multiplier,   1.000 ,   1.000,   1.000,   1.000
! <Load Timesteps in Zone Design Calculation Averaging Window>, Value
 Load Timesteps in Zone Design Calculation Averaging Window,    6
! <Heating Sizing Factor Information>, Sizing Factor ID, Value
 Heating Sizing Factor Information, Global,   1.3000    
 Heating Sizing Factor Information, Zone SP-STORY 1 EAST CORE SPACE SYS-3 FLR-1 SCH-A HPLCMT-CORE ZN,   1.3000    
 Heating Sizing Factor Information, Zone SP-STORY 1 EAST LEFT PERIMETER SPACE SYS-3 FLR-1 SCH-A HPLCMT-EAST ZN,   1.3000    
 Heating Sizing Factor Information, Zone SP-STORY 1 EAST RIGHT PERIMETER SPACE SYS-3 FLR-1 SCH-A HPLCMT-EAST ZN,   1.3000    
 Heating Sizing Factor Information, Zone SP-STORY 1 NORTH LEFT PERIMETER SPACE SYS-3 FLR-1 SCH-A HPLCMT-NORTH ZN,   1.3000    
 Heating Sizing Factor Information, Zone SP-STORY 1 NORTH LOWER PERIMETER SPACE SYS-3 FLR-1 SCH-A HPLCMT-NORTH ZN,   1.3000    
 Heating Sizing Factor Information, Zone SP-STORY 1 NORTH RIGHT PERIMETER SPACE SYS-3 FLR-1 SCH-A HPLCMT-NORTH ZN,   1.3000    
 Heating Sizing Factor Information, Zone SP-STORY 1 SOUTH CORE SPACE SYS-3 FLR-1 SCH-A HPLCMT-CORE ZN,   1.3000    
 Heating Sizing Factor Information, Zone SP-STORY 1 SOUTH LOWER PERIMETER SPACE SYS-3 FLR-1 SCH-A HPLCMT-SOUTH ZN,   1.3000    
 Heating Sizing Factor Information, Zone SP-STORY 1 WEST CORE SPACE SYS-3 FLR-1 SCH-A HPLCMT-CORE ZN,   1.3000    
 Heating Sizing Factor Information, Zone SP-STORY 1 WEST LEFT PERIMETER SPACE SYS-3 FLR-1 SCH-A HPLCMT-WEST ZN,   1.3000    
 Heating Sizing Factor Information, Zone SP-STORY 1 WEST RIGHT PERIMETER SPACE SYS-3 FLR-1 SCH-A HPLCMT-WEST ZN,   1.3000    
 Heating Sizing Factor Information, Zone SP-STORY 2 EAST CORE SPACE SYS-3 FLR-2 SCH-A HPLCMT-CORE ZN,   1.3000    
 Heating Sizing Factor Information, Zone SP-STORY 2 EAST LEFT PERIMETER SPACE SYS-3 FLR-2 SCH-A HPLCMT-EAST ZN,   1.3000    
 Heating Sizing Factor Information, Zone SP-STORY 2 EAST RIGHT PERIMETER SPACE SYS-3 FLR-2 SCH-A HPLCMT-EAST ZN,   1.3000    
 Heating Sizing Factor Information, Zone SP-STORY 2 NORTH LEFT PERIMETER SPACE SYS-3 FLR-2 SCH-A HPLCMT-NORTH ZN,   1.3000    
 Heating Sizing Factor Information, Zone SP-STORY 2 NORTH LOWER PERIMETER SPACE SYS-3 FLR-2 SCH-A HPLCMT-NORTH ZN,   1.3000    
 Heating Sizing Factor Information, Zone SP-STORY 2 NORTH RIGHT PERIMETER SPACE SYS-3 FLR-2 SCH-A HPLCMT-NORTH ZN,   1.3000    
 Heating Sizing Factor Information, Zone SP-STORY 2 SOUTH CORE SPACE SYS-3 FLR-2 SCH-A HPLCMT-CORE ZN,   1.3000    
 Heating Sizing Factor Information, Zone SP-STORY 2 SOUTH LOWER PERIMETER SPACE SYS-3 FLR-2 SCH-A HPLCMT-SOUTH ZN,   1.3000    
 Heating Sizing Factor Information, Zone SP-STORY 2 WEST CORE SPACE SYS-3 FLR-2 SCH-A HPLCMT-CORE ZN,   1.3000    
 Heating Sizing Factor Information, Zone SP-STORY 2 WEST LEFT PERIMETER SPACE SYS-3 FLR-2 SCH-A HPLCMT-WEST ZN,   1.3000    
 Heating Sizing Factor Information, Zone SP-STORY 2 WEST RIGHT PERIMETER SPACE SYS-3 FLR-2 SCH-A HPLCMT-WEST ZN,   1.3000    
! <Cooling Sizing Factor Information>, Sizing Factor ID, Value
 Cooling Sizing Factor Information, Global,   1.1000    
 Cooling Sizing Factor Information, Zone SP-STORY 1 EAST CORE SPACE SYS-3 FLR-1 SCH-A HPLCMT-CORE ZN,   1.1000    
 Cooling Sizing Factor Information, Zone SP-STORY 1 EAST LEFT PERIMETER SPACE SYS-3 FLR-1 SCH-A HPLCMT-EAST ZN,   1.1000    
 Cooling Sizing Factor Information, Zone SP-STORY 1 EAST RIGHT PERIMETER SPACE SYS-3 FLR-1 SCH-A HPLCMT-EAST ZN,   1.1000    
 Cooling Sizing Factor Information, Zone SP-STORY 1 NORTH LEFT PERIMETER SPACE SYS-3 FLR-1 SCH-A HPLCMT-NORTH ZN,   1.1000    
 Cooling Sizing Factor Information, Zone SP-STORY 1 NORTH LOWER PERIMETER SPACE SYS-3 FLR-1 SCH-A HPLCMT-NORTH ZN,   1.1000    
 Cooling Sizing Factor Information, Zone SP-STORY 1 NORTH RIGHT PERIMETER SPACE SYS-3 FLR-1 SCH-A HPLCMT-NORTH ZN,   1.1000    
 Cooling Sizing Factor Information, Zone SP-STORY 1 SOUTH CORE SPACE SYS-3 FLR-1 SCH-A HPLCMT-CORE ZN,   1.1000    
 Cooling Sizing Factor Information, Zone SP-STORY 1 SOUTH LOWER PERIMETER SPACE SYS-3 FLR-1 SCH-A HPLCMT-SOUTH ZN,   1.1000    
 Cooling Sizing Factor Information, Zone SP-STORY 1 WEST CORE SPACE SYS-3 FLR-1 SCH-A HPLCMT-CORE ZN,   1.1000    
 Cooling Sizing Factor Information, Zone SP-STORY 1 WEST LEFT PERIMETER SPACE SYS-3 FLR-1 SCH-A HPLCMT-WEST ZN,   1.1000    
 Cooling Sizing Factor Information, Zone SP-STORY 1 WEST RIGHT PERIMETER SPACE SYS-3 FLR-1 SCH-A HPLCMT-WEST ZN,   1.1000    
 Cooling Sizing Factor Information, Zone SP-STORY 2 EAST CORE SPACE SYS-3 FLR-2 SCH-A HPLCMT-CORE ZN,   1.1000    
 Cooling Sizing Factor Information, Zone SP-STORY 2 EAST LEFT PERIMETER SPACE SYS-3 FLR-2 SCH-A HPLCMT-EAST ZN,   1.1000    
 Cooling Sizing Factor Information, Zone SP-STORY 2 EAST RIGHT PERIMETER SPACE SYS-3 FLR-2 SCH-A HPLCMT-EAST ZN,   1.1000    
 Cooling Sizing Factor Information, Zone SP-STORY 2 NORTH LEFT PERIMETER SPACE SYS-3 FLR-2 SCH-A HPLCMT-NORTH ZN,   1.1000    
 Cooling Sizing Factor Information, Zone SP-STORY 2 NORTH LOWER PERIMETER SPACE SYS-3 FLR-2 SCH-A HPLCMT-NORTH ZN,   1.1000    
 Cooling Sizing Factor Information, Zone SP-STORY 2 NORTH RIGHT PERIMETER SPACE SYS-3 FLR-2 SCH-A HPLCMT-NORTH ZN,   1.1000    
 Cooling Sizing Factor Information, Zone SP-STORY 2 SOUTH CORE SPACE SYS-3 FLR-2 SCH-A HPLCMT-CORE ZN,   1.1000    
 Cooling Sizing Factor Information, Zone SP-STORY 2 SOUTH LOWER PERIMETER SPACE SYS-3 FLR-2 SCH-A HPLCMT-SOUTH ZN,   1.1000    
 Cooling Sizing Factor Information, Zone SP-STORY 2 WEST CORE SPACE SYS-3 FLR-2 SCH-A HPLCMT-CORE ZN,   1.1000    
 Cooling Sizing Factor Information, Zone SP-STORY 2 WEST LEFT PERIMETER SPACE SYS-3 FLR-2 SCH-A HPLCMT-WEST ZN,   1.1000    
 Cooling Sizing Factor Information, Zone SP-STORY 2 WEST RIGHT PERIMETER SPACE SYS-3 FLR-2 SCH-A HPLCMT-WEST ZN,   1.1000    
! <Zone Sizing Information>, Zone Name, Load Type, Calc Des Load {W}, User Des Load {W}, Calc Des Air Flow Rate {m3/s}, User Des Air Flow Rate {m3/s}, Design Day Name, Date/Time of Peak, Temperature at Peak {C}, Humidity Ratio at Peak {kgWater/kgDryAir}, Floor Area {m2}, # Occupants, Calc Outdoor Air Flow Rate {m3/s}, Calc DOAS Heat Addition Rate {W}
 Zone Sizing Information, SP-STORY 1 EAST CORE SPACE SYS-3 FLR-1 SCH-A HPLCMT-CORE ZN, Cooling, 48002.91955, 52803.21151, 3.59943, 3.95937, OTTAWA=MACDONALD-CARTIER INTL ANN CLG .4% CONDNS DB=>MWB, 7/21 17:00:00, 29.18600, 1.30168E-002, 3230.61013, 129.27137, 1.29651, 0.00000
 Zone Sizing Information, SP-STORY 1 EAST CORE SPACE SYS-3 FLR-1 SCH-A HPLCMT-CORE ZN, Heating, 22205.25924, 28866.83701, 0.84620, 1.29651, OTTAWA=MACDONALD-CARTIER INTL ANN HTG 99.6% CONDNS DB, 1/21 08:00:00, -24.20000, 4.26780E-004, 3230.61013, 129.27137, 1.29651, 0.00000
 Zone Sizing Information, SP-STORY 1 EAST LEFT PERIMETER SPACE SYS-3 FLR-1 SCH-A HPLCMT-EAST ZN, Cooling, 23809.94723, 26190.94195, 1.78535, 1.96389, OTTAWA=MACDONALD-CARTIER INTL ANN CLG .4% CONDNS DB=>MWB, 7/21 08:50:00, 24.72517, 1.30168E-002, 115.15318, 4.60780, 4.62133E-002, 0.00000
 Zone Sizing Information, SP-STORY 1 EAST LEFT PERIMETER SPACE SYS-3 FLR-1 SCH-A HPLCMT-EAST ZN, Heating, 10474.63083, 13617.02007, 0.40910, 0.53183, OTTAWA=MACDONALD-CARTIER INTL ANN HTG 99.6% CONDNS DB, 1/21 08:00:00, -24.20000, 4.26780E-004, 115.15318, 4.60780, 4.62133E-002, 0.00000
 Zone Sizing Information, SP-STORY 1 EAST RIGHT PERIMETER SPACE SYS-3 FLR-1 SCH-A HPLCMT-EAST ZN, Cooling, 36637.22441, 40300.94686, 2.74720, 3.02193, OTTAWA=MACDONALD-CARTIER INTL ANN CLG .4% CONDNS DB=>MWB, 7/21 09:00:00, 25.04500, 1.30168E-002, 170.40922, 6.81885, 6.83886E-002, 0.00000
 Zone Sizing Information, SP-STORY 1 EAST RIGHT PERIMETER SPACE SYS-3 FLR-1 SCH-A HPLCMT-EAST ZN, Heating, 15730.42072, 20449.54694, 0.61440, 0.79872, OTTAWA=MACDONALD-CARTIER INTL ANN HTG 99.6% CONDNS DB, 1/21 08:00:00, -24.20000, 4.26780E-004, 170.40922, 6.81885, 6.83886E-002, 0.00000
 Zone Sizing Information, SP-STORY 1 NORTH LEFT PERIMETER SPACE SYS-3 FLR-1 SCH-A HPLCMT-NORTH ZN, Cooling, 2728.39742, 3001.23717, 0.20459, 0.22505, OTTAWA=MACDONALD-CARTIER INTL ANN CLG .4% CONDNS DB=>MWB, 7/21 15:00:00, 30.60000, 1.30168E-002, 55.25604, 2.21104, 2.21754E-002, 0.00000
 Zone Sizing Information, SP-STORY 1 NORTH LEFT PERIMETER SPACE SYS-3 FLR-1 SCH-A HPLCMT-NORTH ZN, Heating, 5377.81919, 6991.16495, 0.21008, 0.27311, OTTAWA=MACDONALD-CARTIER INTL ANN HTG 99.6% CONDNS DB, 1/21 08:00:00, -24.20000, 4.26780E-004, 55.25604, 2.21104, 2.21754E-002, 0.00000
 Zone Sizing Information, SP-STORY 1 NORTH LOWER PERIMETER SPACE SYS-3 FLR-1 SCH-A HPLCMT-NORTH ZN, Cooling, 2590.31771, 2849.34948, 0.19424, 0.21366, OTTAWA=MACDONALD-CARTIER INTL ANN CLG .4% CONDNS DB=>MWB, 7/21 15:00:00, 30.60000, 1.30168E-002, 59.89713, 2.39676, 2.40379E-002, 0.00000
 Zone Sizing Information, SP-STORY 1 NORTH LOWER PERIMETER SPACE SYS-3 FLR-1 SCH-A HPLCMT-NORTH ZN, Heating, 5302.62248, 6893.40923, 0.20708, 0.26921, OTTAWA=MACDONALD-CARTIER INTL ANN HTG 99.6% CONDNS DB, 1/21 08:00:00, -24.20000, 4.26780E-004, 59.89713, 2.39676, 2.40379E-002, 0.00000
 Zone Sizing Information, SP-STORY 1 NORTH RIGHT PERIMETER SPACE SYS-3 FLR-1 SCH-A HPLCMT-NORTH ZN, Cooling, 2729.08794, 3001.99673, 0.20465, 0.22511, OTTAWA=MACDONALD-CARTIER INTL ANN CLG .4% CONDNS DB=>MWB, 7/21 15:00:00, 30.60000, 1.30168E-002, 55.25604, 2.21104, 2.21754E-002, 0.00000
 Zone Sizing Information, SP-STORY 1 NORTH RIGHT PERIMETER SPACE SYS-3 FLR-1 SCH-A HPLCMT-NORTH ZN, Heating, 5377.09861, 6990.22819, 0.21005, 0.27307, OTTAWA=MACDONALD-CARTIER INTL ANN HTG 99.6% CONDNS DB, 1/21 08:00:00, -24.20000, 4.26780E-004, 55.25604, 2.21104, 2.21754E-002, 0.00000
 Zone Sizing Information, SP-STORY 1 SOUTH CORE SPACE SYS-3 FLR-1 SCH-A HPLCMT-CORE ZN, Cooling, 36227.80253, 39850.58278, 2.71648, 2.98813, OTTAWA=MACDONALD-CARTIER INTL ANN CLG .4% CONDNS DB=>MWB, 7/21 17:00:00, 29.18600, 1.30168E-002, 2626.83650, 105.11165, 1.05420, 0.00000
 Zone Sizing Information, SP-STORY 1 SOUTH CORE SPACE SYS-3 FLR-1 SCH-A HPLCMT-CORE ZN, Heating, 15766.02764, 20495.83593, 0.60241, 1.05420, OTTAWA=MACDONALD-CARTIER INTL ANN HTG 99.6% CONDNS DB, 1/21 08:00:00, -24.20000, 4.26780E-004, 2626.83650, 105.11165, 1.05420, 0.00000
 Zone Sizing Information, SP-STORY 1 SOUTH LOWER PERIMETER SPACE SYS-3 FLR-1 SCH-A HPLCMT-SOUTH ZN, Cooling, 17983.18887, 19781.50776, 1.34849, 1.48334, OTTAWA=MACDONALD-CARTIER INTL ANN CLG .4% CONDNS DB=>MWB, 7/21 13:00:00, 30.09500, 1.30168E-002, 170.40922, 6.81885, 6.83886E-002, 0.00000
 Zone Sizing Information, SP-STORY 1 SOUTH LOWER PERIMETER SPACE SYS-3 FLR-1 SCH-A HPLCMT-SOUTH ZN, Heating, 15626.44763, 20314.38192, 0.61033, 0.79343, OTTAWA=MACDONALD-CARTIER INTL ANN HTG 99.6% CONDNS DB, 1/21 08:00:00, -24.20000, 4.26780E-004, 170.40922, 6.81885, 6.83886E-002, 0.00000
 Zone Sizing Information, SP-STORY 1 WEST CORE SPACE SYS-3 FLR-1 SCH-A HPLCMT-CORE ZN, Cooling, 48962.09240, 53858.30164, 3.67135, 4.03849, OTTAWA=MACDONALD-CARTIER INTL ANN CLG .4% CONDNS DB=>MWB, 7/21 17:00:00, 29.18600, 1.30168E-002, 3230.61013, 129.27137, 1.29651, 0.00000
 Zone Sizing Information, SP-STORY 1 WEST CORE SPACE SYS-3 FLR-1 SCH-A HPLCMT-CORE ZN, Heating, 22271.86110, 28953.41943, 0.84870, 1.29651, OTTAWA=MACDONALD-CARTIER INTL ANN HTG 99.6% CONDNS DB, 1/21 08:00:00, -24.20000, 4.26780E-004, 3230.61013, 129.27137, 1.29651, 0.00000
 Zone Sizing Information, SP-STORY 1 WEST LEFT PERIMETER SPACE SYS-3 FLR-1 SCH-A HPLCMT-WEST ZN, Cooling, 40005.44112, 44005.98524, 2.99985, 3.29983, OTTAWA=MACDONALD-CARTIER INTL ANN CLG .4% CONDNS DB=>MWB, 7/21 17:20:00, 28.84933, 1.30168E-002, 170.40922, 6.81885, 6.83886E-002, 0.00000
 Zone Sizing Information, SP-STORY 1 WEST LEFT PERIMETER SPACE SYS-3 FLR-1 SCH-A HPLCMT-WEST ZN, Heating, 15926.12279, 20703.95962, 0.62207, 0.80869, OTTAWA=MACDONALD-CARTIER INTL ANN HTG 99.6% CONDNS DB, 1/21 08:00:00, -24.20000, 4.26780E-004, 170.40922, 6.81885, 6.83886E-002, 0.00000
 Zone Sizing Information, SP-STORY 1 WEST RIGHT PERIMETER SPACE SYS-3 FLR-1 SCH-A HPLCMT-WEST ZN, Cooling, 26344.51011, 28978.96112, 1.97547, 2.17302, OTTAWA=MACDONALD-CARTIER INTL ANN CLG .4% CONDNS DB=>MWB, 7/21 17:20:00, 28.84933, 1.30168E-002, 115.15318, 4.60780, 4.62133E-002, 0.00000
 Zone Sizing Information, SP-STORY 1 WEST RIGHT PERIMETER SPACE SYS-3 FLR-1 SCH-A HPLCMT-WEST ZN, Heating, 10607.23720, 13789.40835, 0.41430, 0.53859, OTTAWA=MACDONALD-CARTIER INTL ANN HTG 99.6% CONDNS DB, 1/21 08:00:00, -24.20000, 4.26780E-004, 115.15318, 4.60780, 4.62133E-002, 0.00000
 Zone Sizing Information, SP-STORY 2 EAST CORE SPACE SYS-3 FLR-2 SCH-A HPLCMT-CORE ZN, Cooling, 86987.85826, 95686.64409, 6.52316, 7.17547, OTTAWA=MACDONALD-CARTIER INTL ANN CLG .4% CONDNS DB=>MWB, 7/21 12:00:00, 29.28700, 1.30168E-002, 3230.61013, 129.27137, 1.29651, 0.00000
 Zone Sizing Information, SP-STORY 2 EAST CORE SPACE SYS-3 FLR-2 SCH-A HPLCMT-CORE ZN, Heating, 61197.00930, 79556.11209, 2.35963, 3.06752, OTTAWA=MACDONALD-CARTIER INTL ANN HTG 99.6% CONDNS DB, 1/21 08:00:00, -24.20000, 4.26780E-004, 3230.61013, 129.27137, 1.29651, 0.00000
 Zone Sizing Information, SP-STORY 2 EAST LEFT PERIMETER SPACE SYS-3 FLR-2 SCH-A HPLCMT-EAST ZN, Cooling, 25240.30104, 27764.33114, 1.89275, 2.08202, OTTAWA=MACDONALD-CARTIER INTL ANN CLG .4% CONDNS DB=>MWB, 7/21 09:00:00, 25.04500, 1.30168E-002, 115.15318, 4.60780, 4.62133E-002, 0.00000
 Zone Sizing Information, SP-STORY 2 EAST LEFT PERIMETER SPACE SYS-3 FLR-2 SCH-A HPLCMT-EAST ZN, Heating, 12537.53998, 16298.80197, 0.48983, 0.63678, OTTAWA=MACDONALD-CARTIER INTL ANN HTG 99.6% CONDNS DB, 1/21 08:00:00, -24.20000, 4.26780E-004, 115.15318, 4.60780, 4.62133E-002, 0.00000
 Zone Sizing Information, SP-STORY 2 EAST RIGHT PERIMETER SPACE SYS-3 FLR-2 SCH-A HPLCMT-EAST ZN, Cooling, 38250.88155, 42075.96970, 2.86841, 3.15525, OTTAWA=MACDONALD-CARTIER INTL ANN CLG .4% CONDNS DB=>MWB, 7/21 09:00:00, 25.04500, 1.30168E-002, 170.40922, 6.81885, 6.83886E-002, 0.00000
 Zone Sizing Information, SP-STORY 2 EAST RIGHT PERIMETER SPACE SYS-3 FLR-2 SCH-A HPLCMT-EAST ZN, Heating, 18716.87495, 24331.93744, 0.73126, 0.95064, OTTAWA=MACDONALD-CARTIER INTL ANN HTG 99.6% CONDNS DB, 1/21 08:00:00, -24.20000, 4.26780E-004, 170.40922, 6.81885, 6.83886E-002, 0.00000
 Zone Sizing Information, SP-STORY 2 NORTH LEFT PERIMETER SPACE SYS-3 FLR-2 SCH-A HPLCMT-NORTH ZN, Cooling, 4080.39307, 4488.43238, 0.30599, 0.33659, OTTAWA=MACDONALD-CARTIER INTL ANN CLG .4% CONDNS DB=>MWB, 7/21 14:20:00, 30.60000, 1.30168E-002, 55.25604, 2.21104, 2.21754E-002, 0.00000
 Zone Sizing Information, SP-STORY 2 NORTH LEFT PERIMETER SPACE SYS-3 FLR-2 SCH-A HPLCMT-NORTH ZN, Heating, 6347.52275, 8251.77958, 0.24803, 0.32243, OTTAWA=MACDONALD-CARTIER INTL ANN HTG 99.6% CONDNS DB, 1/21 08:00:00, -24.20000, 4.26780E-004, 55.25604, 2.21104, 2.21754E-002, 0.00000
 Zone Sizing Information, SP-STORY 2 NORTH LOWER PERIMETER SPACE SYS-3 FLR-2 SCH-A HPLCMT-NORTH ZN, Cooling, 4149.25068, 4564.17575, 0.31115, 0.34227, OTTAWA=MACDONALD-CARTIER INTL ANN CLG .4% CONDNS DB=>MWB, 7/21 14:20:00, 30.60000, 1.30168E-002, 59.89713, 2.39676, 2.40379E-002, 0.00000
 Zone Sizing Information, SP-STORY 2 NORTH LOWER PERIMETER SPACE SYS-3 FLR-2 SCH-A HPLCMT-NORTH ZN, Heating, 6421.69724, 8348.20641, 0.25088, 0.32614, OTTAWA=MACDONALD-CARTIER INTL ANN HTG 99.6% CONDNS DB, 1/21 08:00:00, -24.20000, 4.26780E-004, 59.89713, 2.39676, 2.40379E-002, 0.00000
 Zone Sizing Information, SP-STORY 2 NORTH RIGHT PERIMETER SPACE SYS-3 FLR-2 SCH-A HPLCMT-NORTH ZN, Cooling, 4080.82278, 4488.90506, 0.30602, 0.33663, OTTAWA=MACDONALD-CARTIER INTL ANN CLG .4% CONDNS DB=>MWB, 7/21 14:20:00, 30.60000, 1.30168E-002, 55.25604, 2.21104, 2.21754E-002, 0.00000
 Zone Sizing Information, SP-STORY 2 NORTH RIGHT PERIMETER SPACE SYS-3 FLR-2 SCH-A HPLCMT-NORTH ZN, Heating, 6346.80576, 8250.84749, 0.24800, 0.32240, OTTAWA=MACDONALD-CARTIER INTL ANN HTG 99.6% CONDNS DB, 1/21 08:00:00, -24.20000, 4.26780E-004, 55.25604, 2.21104, 2.21754E-002, 0.00000
 Zone Sizing Information, SP-STORY 2 SOUTH CORE SPACE SYS-3 FLR-2 SCH-A HPLCMT-CORE ZN, Cooling, 69945.33868, 76939.87254, 5.24494, 5.76943, OTTAWA=MACDONALD-CARTIER INTL ANN CLG .4% CONDNS DB=>MWB, 7/21 14:40:00, 30.60000, 1.30168E-002, 2626.83650, 105.11165, 1.05420, 0.00000
 Zone Sizing Information, SP-STORY 2 SOUTH CORE SPACE SYS-3 FLR-2 SCH-A HPLCMT-CORE ZN, Heating, 49115.41751, 63850.04276, 1.89338, 2.46140, OTTAWA=MACDONALD-CARTIER INTL ANN HTG 99.6% CONDNS DB, 1/21 08:00:00, -24.20000, 4.26780E-004, 2626.83650, 105.11165, 1.05420, 0.00000
 Zone Sizing Information, SP-STORY 2 SOUTH LOWER PERIMETER SPACE SYS-3 FLR-2 SCH-A HPLCMT-SOUTH ZN, Cooling, 21892.18969, 24081.40866, 1.64172, 1.80589, OTTAWA=MACDONALD-CARTIER INTL ANN CLG .4% CONDNS DB=>MWB, 7/21 13:00:00, 30.09500, 1.30168E-002, 170.40922, 6.81885, 6.83886E-002, 0.00000
 Zone Sizing Information, SP-STORY 2 SOUTH LOWER PERIMETER SPACE SYS-3 FLR-2 SCH-A HPLCMT-SOUTH ZN, Heating, 18666.85366, 24266.90976, 0.72931, 0.94810, OTTAWA=MACDONALD-CARTIER INTL ANN HTG 99.6% CONDNS DB, 1/21 08:00:00, -24.20000, 4.26780E-004, 170.40922, 6.81885, 6.83886E-002, 0.00000
 Zone Sizing Information, SP-STORY 2 WEST CORE SPACE SYS-3 FLR-2 SCH-A HPLCMT-CORE ZN, Cooling, 87414.13191, 96155.54510, 6.55493, 7.21042, OTTAWA=MACDONALD-CARTIER INTL ANN CLG .4% CONDNS DB=>MWB, 7/21 15:00:00, 30.60000, 1.30168E-002, 3230.61013, 129.27137, 1.29651, 0.00000
 Zone Sizing Information, SP-STORY 2 WEST CORE SPACE SYS-3 FLR-2 SCH-A HPLCMT-CORE ZN, Heating, 61259.28816, 79637.07461, 2.36207, 3.07069, OTTAWA=MACDONALD-CARTIER INTL ANN HTG 99.6% CONDNS DB, 1/21 08:00:00, -24.20000, 4.26780E-004, 3230.61013, 129.27137, 1.29651, 0.00000
 Zone Sizing Information, SP-STORY 2 WEST LEFT PERIMETER SPACE SYS-3 FLR-2 SCH-A HPLCMT-WEST ZN, Cooling, 41852.26618, 46037.49279, 3.13854, 3.45240, OTTAWA=MACDONALD-CARTIER INTL ANN CLG .4% CONDNS DB=>MWB, 7/21 17:10:00, 29.01767, 1.30168E-002, 170.40922, 6.81885, 6.83886E-002, 0.00000
 Zone Sizing Information, SP-STORY 2 WEST LEFT PERIMETER SPACE SYS-3 FLR-2 SCH-A HPLCMT-WEST ZN, Heating, 18921.34869, 24597.75330, 0.73928, 0.96106, OTTAWA=MACDONALD-CARTIER INTL ANN HTG 99.6% CONDNS DB, 1/21 08:00:00, -24.20000, 4.26780E-004, 170.40922, 6.81885, 6.83886E-002, 0.00000
 Zone Sizing Information, SP-STORY 2 WEST RIGHT PERIMETER SPACE SYS-3 FLR-2 SCH-A HPLCMT-WEST ZN, Cooling, 27758.40270, 30534.24297, 2.08163, 2.28979, OTTAWA=MACDONALD-CARTIER INTL ANN CLG .4% CONDNS DB=>MWB, 7/21 17:10:00, 29.01767, 1.30168E-002, 115.15318, 4.60780, 4.62133E-002, 0.00000
 Zone Sizing Information, SP-STORY 2 WEST RIGHT PERIMETER SPACE SYS-3 FLR-2 SCH-A HPLCMT-WEST ZN, Heating, 12672.43642, 16474.16735, 0.49511, 0.64365, OTTAWA=MACDONALD-CARTIER INTL ANN HTG 99.6% CONDNS DB, 1/21 08:00:00, -24.20000, 4.26780E-004, 115.15318, 4.60780, 4.62133E-002, 0.00000
! <System Sizing Information>, System Name, Load Type, Peak Load Kind, User Design Capacity, Calc Des Air Flow Rate [m3/s], User Des Air Flow Rate [m3/s], Design Day Name, Date/Time of Peak
 System Sizing Information, SYS_3_PSZ SP-STORY 1 EAST CORE SPACE SYS-3 FLR-1 SCH-A HPLCMT-CORE ZN, Cooling, Sensible, 60014.98, 3.95937, 3.95937, OTTAWA=MACDONALD-CARTIER INTL ANN CLG .4% CONDNS DB=>MWB, 7/21 05:00:00
 System Sizing Information, SYS_3_PSZ SP-STORY 1 EAST CORE SPACE SYS-3 FLR-1 SCH-A HPLCMT-CORE ZN, Heating, Sensible, 104007.22, 1.29651, 1.29651, OTTAWA=MACDONALD-CARTIER INTL ANN HTG 99.6% CONDNS DB, 1/21 00:10:00
 System Sizing Information, SYS_3_PSZ SP-STORY 1 EAST LEFT PERIMETER SPACE SYS-3 FLR-1 SCH-A HPLCMT-EAST ZN, Cooling, Sensible, 25826.01, 1.96389, 1.96389, OTTAWA=MACDONALD-CARTIER INTL ANN CLG .4% CONDNS DB=>MWB, 7/21 05:00:00
 System Sizing Information, SYS_3_PSZ SP-STORY 1 EAST LEFT PERIMETER SPACE SYS-3 FLR-1 SCH-A HPLCMT-EAST ZN, Heating, Sensible, 15919.78, 0.53183, 0.53183, OTTAWA=MACDONALD-CARTIER INTL ANN HTG 99.6% CONDNS DB, 1/21 08:00:00
 System Sizing Information, SYS_3_PSZ SP-STORY 1 EAST RIGHT PERIMETER SPACE SYS-3 FLR-1 SCH-A HPLCMT-EAST ZN, Cooling, Sensible, 39763.17, 3.02193, 3.02193, OTTAWA=MACDONALD-CARTIER INTL ANN CLG .4% CONDNS DB=>MWB, 7/21 05:00:00
 System Sizing Information, SYS_3_PSZ SP-STORY 1 EAST RIGHT PERIMETER SPACE SYS-3 FLR-1 SCH-A HPLCMT-EAST ZN, Heating, Sensible, 23852.98, 0.79872, 0.79872, OTTAWA=MACDONALD-CARTIER INTL ANN HTG 99.6% CONDNS DB, 1/21 08:00:00
 System Sizing Information, SYS_3_PSZ SP-STORY 1 NORTH LEFT PERIMETER SPACE SYS-3 FLR-1 SCH-A HPLCMT-NORTH ZN, Cooling, Sensible, 3129.59, 0.22505, 0.22505, OTTAWA=MACDONALD-CARTIER INTL ANN CLG .4% CONDNS DB=>MWB, 7/21 05:00:00
 System Sizing Information, SYS_3_PSZ SP-STORY 1 NORTH LEFT PERIMETER SPACE SYS-3 FLR-1 SCH-A HPLCMT-NORTH ZN, Heating, Sensible, 8089.53, 0.27311, 0.27311, OTTAWA=MACDONALD-CARTIER INTL ANN HTG 99.6% CONDNS DB, 1/21 08:00:00
 System Sizing Information, SYS_3_PSZ SP-STORY 1 NORTH LOWER PERIMETER SPACE SYS-3 FLR-1 SCH-A HPLCMT-NORTH ZN, Cooling, Sensible, 2994.72, 0.21366, 0.21366, OTTAWA=MACDONALD-CARTIER INTL ANN CLG .4% CONDNS DB=>MWB, 7/21 05:00:00
 System Sizing Information, SYS_3_PSZ SP-STORY 1 NORTH LOWER PERIMETER SPACE SYS-3 FLR-1 SCH-A HPLCMT-NORTH ZN, Heating, Sensible, 8093.96, 0.26921, 0.26921, OTTAWA=MACDONALD-CARTIER INTL ANN HTG 99.6% CONDNS DB, 1/21 08:00:00
 System Sizing Information, SYS_3_PSZ SP-STORY 1 NORTH RIGHT PERIMETER SPACE SYS-3 FLR-1 SCH-A HPLCMT-NORTH ZN, Cooling, Sensible, 3130.33, 0.22511, 0.22511, OTTAWA=MACDONALD-CARTIER INTL ANN CLG .4% CONDNS DB=>MWB, 7/21 05:00:00
 System Sizing Information, SYS_3_PSZ SP-STORY 1 NORTH RIGHT PERIMETER SPACE SYS-3 FLR-1 SCH-A HPLCMT-NORTH ZN, Heating, Sensible, 8088.61, 0.27307, 0.27307, OTTAWA=MACDONALD-CARTIER INTL ANN HTG 99.6% CONDNS DB, 1/21 08:00:00
 System Sizing Information, SYS_3_PSZ SP-STORY 1 SOUTH CORE SPACE SYS-3 FLR-1 SCH-A HPLCMT-CORE ZN, Cooling, Sensible, 45762.21, 2.98813, 2.98813, OTTAWA=MACDONALD-CARTIER INTL ANN CLG .4% CONDNS DB=>MWB, 7/21 05:00:00
 System Sizing Information, SYS_3_PSZ SP-STORY 1 SOUTH CORE SPACE SYS-3 FLR-1 SCH-A HPLCMT-CORE ZN, Heating, Sensible, 84569.15, 1.05420, 1.05420, OTTAWA=MACDONALD-CARTIER INTL ANN HTG 99.6% CONDNS DB, 1/21 00:10:00
 System Sizing Information, SYS_3_PSZ SP-STORY 1 SOUTH LOWER PERIMETER SPACE SYS-3 FLR-1 SCH-A HPLCMT-SOUTH ZN, Cooling, Sensible, 19973.34, 1.48334, 1.48334, OTTAWA=MACDONALD-CARTIER INTL ANN CLG .4% CONDNS DB=>MWB, 7/21 05:00:00
 System Sizing Information, SYS_3_PSZ SP-STORY 1 SOUTH LOWER PERIMETER SPACE SYS-3 FLR-1 SCH-A HPLCMT-SOUTH ZN, Heating, Sensible, 23719.82, 0.79343, 0.79343, OTTAWA=MACDONALD-CARTIER INTL ANN HTG 99.6% CONDNS DB, 1/21 08:00:00
 System Sizing Information, SYS_3_PSZ SP-STORY 1 WEST CORE SPACE SYS-3 FLR-1 SCH-A HPLCMT-CORE ZN, Cooling, Sensible, 61053.77, 4.03849, 4.03849, OTTAWA=MACDONALD-CARTIER INTL ANN CLG .4% CONDNS DB=>MWB, 7/21 05:00:00
 System Sizing Information, SYS_3_PSZ SP-STORY 1 WEST CORE SPACE SYS-3 FLR-1 SCH-A HPLCMT-CORE ZN, Heating, Sensible, 104007.22, 1.29651, 1.29651, OTTAWA=MACDONALD-CARTIER INTL ANN HTG 99.6% CONDNS DB, 1/21 00:10:00
 System Sizing Information, SYS_3_PSZ SP-STORY 1 WEST LEFT PERIMETER SPACE SYS-3 FLR-1 SCH-A HPLCMT-WEST ZN, Cooling, Sensible, 43721.53, 3.29983, 3.29983, OTTAWA=MACDONALD-CARTIER INTL ANN CLG .4% CONDNS DB=>MWB, 7/21 05:00:00
 System Sizing Information, SYS_3_PSZ SP-STORY 1 WEST LEFT PERIMETER SPACE SYS-3 FLR-1 SCH-A HPLCMT-WEST ZN, Heating, Sensible, 24103.73, 0.80869, 0.80869, OTTAWA=MACDONALD-CARTIER INTL ANN HTG 99.6% CONDNS DB, 1/21 08:00:00
 System Sizing Information, SYS_3_PSZ SP-STORY 1 WEST RIGHT PERIMETER SPACE SYS-3 FLR-1 SCH-A HPLCMT-WEST ZN, Cooling, Sensible, 28798.46, 2.17302, 2.17302, OTTAWA=MACDONALD-CARTIER INTL ANN CLG .4% CONDNS DB=>MWB, 7/21 05:00:00
 System Sizing Information, SYS_3_PSZ SP-STORY 1 WEST RIGHT PERIMETER SPACE SYS-3 FLR-1 SCH-A HPLCMT-WEST ZN, Heating, Sensible, 16089.69, 0.53859, 0.53859, OTTAWA=MACDONALD-CARTIER INTL ANN HTG 99.6% CONDNS DB, 1/21 08:00:00
 System Sizing Information, SYS_3_PSZ SP-STORY 2 EAST CORE SPACE SYS-3 FLR-2 SCH-A HPLCMT-CORE ZN, Cooling, Sensible, 102392.93, 7.17547, 7.17547, OTTAWA=MACDONALD-CARTIER INTL ANN CLG .4% CONDNS DB=>MWB, 7/21 05:00:00
 System Sizing Information, SYS_3_PSZ SP-STORY 2 EAST CORE SPACE SYS-3 FLR-2 SCH-A HPLCMT-CORE ZN, Heating, Sensible, 148837.40, 3.06752, 3.06752, OTTAWA=MACDONALD-CARTIER INTL ANN HTG 99.6% CONDNS DB, 1/21 08:00:00
 System Sizing Information, SYS_3_PSZ SP-STORY 2 EAST LEFT PERIMETER SPACE SYS-3 FLR-2 SCH-A HPLCMT-EAST ZN, Cooling, Sensible, 27392.76, 2.08202, 2.08202, OTTAWA=MACDONALD-CARTIER INTL ANN CLG .4% CONDNS DB=>MWB, 7/21 05:00:00
 System Sizing Information, SYS_3_PSZ SP-STORY 2 EAST LEFT PERIMETER SPACE SYS-3 FLR-2 SCH-A HPLCMT-EAST ZN, Heating, Sensible, 18560.65, 0.63678, 0.63678, OTTAWA=MACDONALD-CARTIER INTL ANN HTG 99.6% CONDNS DB, 1/21 08:00:00
 System Sizing Information, SYS_3_PSZ SP-STORY 2 EAST RIGHT PERIMETER SPACE SYS-3 FLR-2 SCH-A HPLCMT-EAST ZN, Cooling, Sensible, 41510.81, 3.15525, 3.15525, OTTAWA=MACDONALD-CARTIER INTL ANN CLG .4% CONDNS DB=>MWB, 7/21 05:00:00
 System Sizing Information, SYS_3_PSZ SP-STORY 2 EAST RIGHT PERIMETER SPACE SYS-3 FLR-2 SCH-A HPLCMT-EAST ZN, Heating, Sensible, 27676.06, 0.95064, 0.95064, OTTAWA=MACDONALD-CARTIER INTL ANN HTG 99.6% CONDNS DB, 1/21 08:00:00
 System Sizing Information, SYS_3_PSZ SP-STORY 2 NORTH LEFT PERIMETER SPACE SYS-3 FLR-2 SCH-A HPLCMT-NORTH ZN, Cooling, Sensible, 4593.80, 0.33659, 0.33659, OTTAWA=MACDONALD-CARTIER INTL ANN CLG .4% CONDNS DB=>MWB, 7/21 05:00:00
 System Sizing Information, SYS_3_PSZ SP-STORY 2 NORTH LEFT PERIMETER SPACE SYS-3 FLR-2 SCH-A HPLCMT-NORTH ZN, Heating, Sensible, 9330.88, 0.32243, 0.32243, OTTAWA=MACDONALD-CARTIER INTL ANN HTG 99.6% CONDNS DB, 1/21 08:00:00
 System Sizing Information, SYS_3_PSZ SP-STORY 2 NORTH LOWER PERIMETER SPACE SYS-3 FLR-2 SCH-A HPLCMT-NORTH ZN, Cooling, Sensible, 4683.05, 0.34227, 0.34227, OTTAWA=MACDONALD-CARTIER INTL ANN CLG .4% CONDNS DB=>MWB, 7/21 05:00:00
 System Sizing Information, SYS_3_PSZ SP-STORY 2 NORTH LOWER PERIMETER SPACE SYS-3 FLR-2 SCH-A HPLCMT-NORTH ZN, Heating, Sensible, 9526.59, 0.32614, 0.32614, OTTAWA=MACDONALD-CARTIER INTL ANN HTG 99.6% CONDNS DB, 1/21 08:00:00
 System Sizing Information, SYS_3_PSZ SP-STORY 2 NORTH RIGHT PERIMETER SPACE SYS-3 FLR-2 SCH-A HPLCMT-NORTH ZN, Cooling, Sensible, 4594.27, 0.33663, 0.33663, OTTAWA=MACDONALD-CARTIER INTL ANN CLG .4% CONDNS DB=>MWB, 7/21 05:00:00
 System Sizing Information, SYS_3_PSZ SP-STORY 2 NORTH RIGHT PERIMETER SPACE SYS-3 FLR-2 SCH-A HPLCMT-NORTH ZN, Heating, Sensible, 9329.97, 0.32240, 0.32240, OTTAWA=MACDONALD-CARTIER INTL ANN HTG 99.6% CONDNS DB, 1/21 08:00:00
 System Sizing Information, SYS_3_PSZ SP-STORY 2 SOUTH CORE SPACE SYS-3 FLR-2 SCH-A HPLCMT-CORE ZN, Cooling, Sensible, 84057.98, 5.76943, 5.76943, OTTAWA=MACDONALD-CARTIER INTL ANN CLG .4% CONDNS DB=>MWB, 7/21 05:00:00
 System Sizing Information, SYS_3_PSZ SP-STORY 2 SOUTH CORE SPACE SYS-3 FLR-2 SCH-A HPLCMT-CORE ZN, Heating, Sensible, 120188.51, 2.46140, 2.46140, OTTAWA=MACDONALD-CARTIER INTL ANN HTG 99.6% CONDNS DB, 1/21 08:00:00
 System Sizing Information, SYS_3_PSZ SP-STORY 2 SOUTH LOWER PERIMETER SPACE SYS-3 FLR-2 SCH-A HPLCMT-SOUTH ZN, Cooling, Sensible, 24206.81, 1.80589, 1.80589, OTTAWA=MACDONALD-CARTIER INTL ANN CLG .4% CONDNS DB=>MWB, 7/21 05:00:00
 System Sizing Information, SYS_3_PSZ SP-STORY 2 SOUTH LOWER PERIMETER SPACE SYS-3 FLR-2 SCH-A HPLCMT-SOUTH ZN, Heating, Sensible, 27611.99, 0.94810, 0.94810, OTTAWA=MACDONALD-CARTIER INTL ANN HTG 99.6% CONDNS DB, 1/21 08:00:00
 System Sizing Information, SYS_3_PSZ SP-STORY 2 WEST CORE SPACE SYS-3 FLR-2 SCH-A HPLCMT-CORE ZN, Cooling, Sensible, 104886.23, 7.21042, 7.21042, OTTAWA=MACDONALD-CARTIER INTL ANN CLG .4% CONDNS DB=>MWB, 7/21 05:00:00
 System Sizing Information, SYS_3_PSZ SP-STORY 2 WEST CORE SPACE SYS-3 FLR-2 SCH-A HPLCMT-CORE ZN, Heating, Sensible, 148917.86, 3.07069, 3.07069, OTTAWA=MACDONALD-CARTIER INTL ANN HTG 99.6% CONDNS DB, 1/21 08:00:00
 System Sizing Information, SYS_3_PSZ SP-STORY 2 WEST LEFT PERIMETER SPACE SYS-3 FLR-2 SCH-A HPLCMT-WEST ZN, Cooling, Sensible, 45735.43, 3.45240, 3.45240, OTTAWA=MACDONALD-CARTIER INTL ANN CLG .4% CONDNS DB=>MWB, 7/21 05:00:00
 System Sizing Information, SYS_3_PSZ SP-STORY 2 WEST LEFT PERIMETER SPACE SYS-3 FLR-2 SCH-A HPLCMT-WEST ZN, Heating, Sensible, 27938.05, 0.96106, 0.96106, OTTAWA=MACDONALD-CARTIER INTL ANN HTG 99.6% CONDNS DB, 1/21 08:00:00
 System Sizing Information, SYS_3_PSZ SP-STORY 2 WEST RIGHT PERIMETER SPACE SYS-3 FLR-2 SCH-A HPLCMT-WEST ZN, Cooling, Sensible, 30339.02, 2.28979, 2.28979, OTTAWA=MACDONALD-CARTIER INTL ANN CLG .4% CONDNS DB=>MWB, 7/21 05:00:00
 System Sizing Information, SYS_3_PSZ SP-STORY 2 WEST RIGHT PERIMETER SPACE SYS-3 FLR-2 SCH-A HPLCMT-WEST ZN, Heating, Sensible, 18733.49, 0.64365, 0.64365, OTTAWA=MACDONALD-CARTIER INTL ANN HTG 99.6% CONDNS DB, 1/21 08:00:00
! <Component Sizing Information>, Component Type, Component Name, Input Field Description, Value
 Component Sizing Information, AirTerminal:SingleDuct:ConstantVolume:NoReheat, AIR TERMINAL SINGLE DUCT CONSTANT VOLUME NO REHEAT 9, Design Size Maximum Air Flow Rate [m3/s], 3.95937
 Component Sizing Information, ZoneHVAC:Baseboard:Convective:Water, ZONE HVAC BASEBOARD CONVECTIVE WATER 9, Design Size Maximum Water Flow Rate [m3/s], 4.38472E-004
 Component Sizing Information, ZoneHVAC:Baseboard:Convective:Water, ZONE HVAC BASEBOARD CONVECTIVE WATER 9, Design Size U-Factor Times Area Value [W/K], 873.88089
 Component Sizing Information, AirTerminal:SingleDuct:ConstantVolume:NoReheat, AIR TERMINAL SINGLE DUCT CONSTANT VOLUME NO REHEAT 4, Design Size Maximum Air Flow Rate [m3/s], 1.96389
 Component Sizing Information, ZoneHVAC:Baseboard:Convective:Water, ZONE HVAC BASEBOARD CONVECTIVE WATER 4, Design Size Maximum Water Flow Rate [m3/s], 2.06835E-004
 Component Sizing Information, ZoneHVAC:Baseboard:Convective:Water, ZONE HVAC BASEBOARD CONVECTIVE WATER 4, Design Size U-Factor Times Area Value [W/K], 415.04381
 Component Sizing Information, AirTerminal:SingleDuct:ConstantVolume:NoReheat, AIR TERMINAL SINGLE DUCT CONSTANT VOLUME NO REHEAT 5, Design Size Maximum Air Flow Rate [m3/s], 3.02193
 Component Sizing Information, ZoneHVAC:Baseboard:Convective:Water, ZONE HVAC BASEBOARD CONVECTIVE WATER 5, Design Size Maximum Water Flow Rate [m3/s], 3.10618E-004
 Component Sizing Information, ZoneHVAC:Baseboard:Convective:Water, ZONE HVAC BASEBOARD CONVECTIVE WATER 5, Design Size U-Factor Times Area Value [W/K], 623.29610
 Component Sizing Information, AirTerminal:SingleDuct:ConstantVolume:NoReheat, AIR TERMINAL SINGLE DUCT CONSTANT VOLUME NO REHEAT 1, Design Size Maximum Air Flow Rate [m3/s], 0.27311
 Component Sizing Information, ZoneHVAC:Baseboard:Convective:Water, ZONE HVAC BASEBOARD CONVECTIVE WATER 1, Design Size Maximum Water Flow Rate [m3/s], 1.06192E-004
 Component Sizing Information, ZoneHVAC:Baseboard:Convective:Water, ZONE HVAC BASEBOARD CONVECTIVE WATER 1, Design Size U-Factor Times Area Value [W/K], 213.08549
 Component Sizing Information, AirTerminal:SingleDuct:ConstantVolume:NoReheat, AIR TERMINAL SINGLE DUCT CONSTANT VOLUME NO REHEAT 2, Design Size Maximum Air Flow Rate [m3/s], 0.26921
 Component Sizing Information, ZoneHVAC:Baseboard:Convective:Water, ZONE HVAC BASEBOARD CONVECTIVE WATER 2, Design Size Maximum Water Flow Rate [m3/s], 1.04707E-004
 Component Sizing Information, ZoneHVAC:Baseboard:Convective:Water, ZONE HVAC BASEBOARD CONVECTIVE WATER 2, Design Size U-Factor Times Area Value [W/K], 210.10944
 Component Sizing Information, AirTerminal:SingleDuct:ConstantVolume:NoReheat, AIR TERMINAL SINGLE DUCT CONSTANT VOLUME NO REHEAT 3, Design Size Maximum Air Flow Rate [m3/s], 0.27307
 Component Sizing Information, ZoneHVAC:Baseboard:Convective:Water, ZONE HVAC BASEBOARD CONVECTIVE WATER 3, Design Size Maximum Water Flow Rate [m3/s], 1.06178E-004
 Component Sizing Information, ZoneHVAC:Baseboard:Convective:Water, ZONE HVAC BASEBOARD CONVECTIVE WATER 3, Design Size U-Factor Times Area Value [W/K], 213.05695
 Component Sizing Information, AirTerminal:SingleDuct:ConstantVolume:NoReheat, AIR TERMINAL SINGLE DUCT CONSTANT VOLUME NO REHEAT 10, Design Size Maximum Air Flow Rate [m3/s], 2.98813
 Component Sizing Information, ZoneHVAC:Baseboard:Convective:Water, ZONE HVAC BASEBOARD CONVECTIVE WATER 10, Design Size Maximum Water Flow Rate [m3/s], 3.11321E-004
 Component Sizing Information, ZoneHVAC:Baseboard:Convective:Water, ZONE HVAC BASEBOARD CONVECTIVE WATER 10, Design Size U-Factor Times Area Value [W/K], 620.29160
 Component Sizing Information, AirTerminal:SingleDuct:ConstantVolume:NoReheat, AIR TERMINAL SINGLE DUCT CONSTANT VOLUME NO REHEAT 8, Design Size Maximum Air Flow Rate [m3/s], 1.48334
 Component Sizing Information, ZoneHVAC:Baseboard:Convective:Water, ZONE HVAC BASEBOARD CONVECTIVE WATER 8, Design Size Maximum Water Flow Rate [m3/s], 3.08565E-004
[...]
 Component Sizing Information, Coil:Heating:Fuel, COIL HEATING GAS 14, Design Size Nominal Capacity [W], 9687.85146
 Component Sizing Information, Fan:ConstantVolume, FAN CONSTANT VOLUME 14, Design Size Maximum Flow Rate [m3/s], 0.33663
 Component Sizing Information, Controller:OutdoorAir, CONTROLLER OUTDOOR AIR 21, Maximum Outdoor Air Flow Rate [m3/s], 5.76943
 Component Sizing Information, Controller:OutdoorAir, CONTROLLER OUTDOOR AIR 21, Minimum Outdoor Air Flow Rate [m3/s], 1.05420
 Component Sizing Information, Coil:Cooling:DX:SingleSpeed, COIL COOLING DX SINGLE SPEED 21, Design Size Rated Air Flow Rate [m3/s], 5.76943
 Component Sizing Information, Coil:Cooling:DX:SingleSpeed, COIL COOLING DX SINGLE SPEED 21, Design Size Gross Rated Total Cooling Capacity [W], 107914.26566
 Component Sizing Information, Coil:Cooling:DX:SingleSpeed, COIL COOLING DX SINGLE SPEED 21, Design Size Gross Rated Sensible Heat Ratio, 0.80038
 DX Cooling Coil Standard Rating Information, Coil:Cooling:DX:SingleSpeed, COIL COOLING DX SINGLE SPEED 21, 103435.4, 2.56, 8.73, 9.26, 8.97
 Component Sizing Information, Coil:Heating:Fuel, COIL HEATING GAS 21, Design Size Nominal Capacity [W], 203922.58103
 Component Sizing Information, Fan:ConstantVolume, FAN CONSTANT VOLUME 21, Design Size Maximum Flow Rate [m3/s], 5.76943
 Component Sizing Information, Controller:OutdoorAir, CONTROLLER OUTDOOR AIR 19, Maximum Outdoor Air Flow Rate [m3/s], 1.80589
 Component Sizing Information, Controller:OutdoorAir, CONTROLLER OUTDOOR AIR 19, Minimum Outdoor Air Flow Rate [m3/s], 6.83886E-002
 Component Sizing Information, Coil:Cooling:DX:SingleSpeed, COIL COOLING DX SINGLE SPEED 19, Design Size Rated Air Flow Rate [m3/s], 1.80589
 Component Sizing Information, Coil:Cooling:DX:SingleSpeed, COIL COOLING DX SINGLE SPEED 19, Design Size Gross Rated Total Cooling Capacity [W], 29893.96463
 Component Sizing Information, Coil:Cooling:DX:SingleSpeed, COIL COOLING DX SINGLE SPEED 19, Design Size Gross Rated Sensible Heat Ratio, 0.80066
 DX Cooling Coil Standard Rating Information, Coil:Cooling:DX:SingleSpeed, COIL COOLING DX SINGLE SPEED 19, 28492.7, 2.51, 8.56, 9.08, 8.70
 Component Sizing Information, Coil:Heating:Fuel, COIL HEATING GAS 19, Design Size Nominal Capacity [W], 49186.69544
 Component Sizing Information, Fan:ConstantVolume, FAN CONSTANT VOLUME 19, Design Size Maximum Flow Rate [m3/s], 1.80589
 Component Sizing Information, Controller:OutdoorAir, CONTROLLER OUTDOOR AIR 22, Maximum Outdoor Air Flow Rate [m3/s], 7.21042
 Component Sizing Information, Controller:OutdoorAir, CONTROLLER OUTDOOR AIR 22, Minimum Outdoor Air Flow Rate [m3/s], 1.29651
 Component Sizing Information, Coil:Cooling:DX:SingleSpeed, COIL COOLING DX SINGLE SPEED 22, Design Size Rated Air Flow Rate [m3/s], 7.21042
 Component Sizing Information, Coil:Cooling:DX:SingleSpeed, COIL COOLING DX SINGLE SPEED 22, Design Size Gross Rated Total Cooling Capacity [W], 134915.58863
 Component Sizing Information, Coil:Cooling:DX:SingleSpeed, COIL COOLING DX SINGLE SPEED 22, Design Size Gross Rated Sensible Heat Ratio, 0.80026
 DX Cooling Coil Standard Rating Information, Coil:Cooling:DX:SingleSpeed, COIL COOLING DX SINGLE SPEED 22, 129318.1, 2.56, 8.73, 9.26, 8.97
 Component Sizing Information, Coil:Heating:Fuel, COIL HEATING GAS 22, Design Size Nominal Capacity [W], 253708.46946
 Component Sizing Information, Fan:ConstantVolume, FAN CONSTANT VOLUME 22, Design Size Maximum Flow Rate [m3/s], 7.21042
 Component Sizing Information, Controller:OutdoorAir, CONTROLLER OUTDOOR AIR 17, Maximum Outdoor Air Flow Rate [m3/s], 3.45240
 Component Sizing Information, Controller:OutdoorAir, CONTROLLER OUTDOOR AIR 17, Minimum Outdoor Air Flow Rate [m3/s], 6.83886E-002
 Component Sizing Information, Coil:Cooling:DX:SingleSpeed, COIL COOLING DX SINGLE SPEED 17, Design Size Rated Air Flow Rate [m3/s], 3.45240
 Component Sizing Information, Coil:Cooling:DX:SingleSpeed, COIL COOLING DX SINGLE SPEED 17, Design Size Gross Rated Total Cooling Capacity [W], 57149.44370
 Component Sizing Information, Coil:Cooling:DX:SingleSpeed, COIL COOLING DX SINGLE SPEED 17, Design Size Gross Rated Sensible Heat Ratio, 0.80066
 DX Cooling Coil Standard Rating Information, Coil:Cooling:DX:SingleSpeed, COIL COOLING DX SINGLE SPEED 17, 54470.5, 2.51, 8.56, 9.08, 8.70
 Component Sizing Information, Coil:Heating:Fuel, COIL HEATING GAS 17, Design Size Nominal Capacity [W], 90598.55299
 Component Sizing Information, Fan:ConstantVolume, FAN CONSTANT VOLUME 17, Design Size Maximum Flow Rate [m3/s], 3.45240
 Component Sizing Information, Controller:OutdoorAir, CONTROLLER OUTDOOR AIR 18, Maximum Outdoor Air Flow Rate [m3/s], 2.28979
 Component Sizing Information, Controller:OutdoorAir, CONTROLLER OUTDOOR AIR 18, Minimum Outdoor Air Flow Rate [m3/s], 4.62133E-002
 Component Sizing Information, Coil:Cooling:DX:SingleSpeed, COIL COOLING DX SINGLE SPEED 18, Design Size Rated Air Flow Rate [m3/s], 2.28979
 Component Sizing Information, Coil:Cooling:DX:SingleSpeed, COIL COOLING DX SINGLE SPEED 18, Design Size Gross Rated Total Cooling Capacity [W], 37904.16552
 Component Sizing Information, Coil:Cooling:DX:SingleSpeed, COIL COOLING DX SINGLE SPEED 18, Design Size Gross Rated Sensible Heat Ratio, 0.80066
 DX Cooling Coil Standard Rating Information, Coil:Cooling:DX:SingleSpeed, COIL COOLING DX SINGLE SPEED 18, 36127.4, 2.51, 8.56, 9.08, 8.70
 Component Sizing Information, Coil:Heating:Fuel, COIL HEATING GAS 18, Design Size Nominal Capacity [W], 60136.02936
 Component Sizing Information, Fan:ConstantVolume, FAN CONSTANT VOLUME 18, Design Size Maximum Flow Rate [m3/s], 2.28979
 Component Sizing Information, PlantLoop, HOT WATER LOOP, Maximum Loop Flow Rate [m3/s], 8.23161E-003
 Component Sizing Information, PlantLoop, HOT WATER LOOP, Plant Loop Volume [m3], 0.98779
 Component Sizing Information, Pump:VariableSpeed, PUMP VARIABLE SPEED 1, Design Flow Rate [m3/s], 8.23161E-003
 Component Sizing Information, Pump:VariableSpeed, PUMP VARIABLE SPEED 1, Design Power Consumption [W], 2103.07163
 Component Sizing Information, Boiler:HotWater, PRIMARY BOILER, Design Size Nominal Capacity [W], 541928.84440
 Component Sizing Information, Boiler:HotWater, PRIMARY BOILER, Design Size Design Water Flow Rate [m3/s], 8.23161E-003
 Component Sizing Information, Boiler:HotWater, SECONDARY BOILER, Design Size Nominal Capacity [W], 541928.84440
 Component Sizing Information, Boiler:HotWater, SECONDARY BOILER, Design Size Design Water Flow Rate [m3/s], 8.23161E-003
! <Environment>,Environment Name,Environment Type, Start Date, End Date, Start DayOfWeek, Duration {#days}, Source:Start DayOfWeek,  Use Daylight Saving, Use Holidays, Apply Weekend Holiday Rule,  Use Rain Values, Use Snow Values
! <Environment:Special Days>, Special Day Name, Special Day Type, Source, Start Date, Duration {#days}
! <Environment:Daylight Saving>, Daylight Saving Indicator, Source, Start Date, End Date
! <Environment:WarmupDays>, NumberofWarmupDays
Environment,OTTAWA=MACDONALD-CARTIER INTL ANN CLG .4% CONDNS DB=>MWB,SizingPeriod:DesignDay,07/21,07/21,SummerDesignDay,1,N/A,N/A,N/A,N/A,N/A,N/A
Environment:Daylight Saving,No,SizingPeriod:DesignDay
! <Environment:Design Day Data>, Max Dry-Bulb Temp {C}, Temp Range {dC}, Temp Range Ind Type, Hum Ind Value at Max Temp, Hum Ind Type,Pressure {Pa}, Wind Direction {deg CW from N}, Wind Speed {m/s}, Clearness, Rain, Snow
! <Environment:Design Day Misc>,DayOfYear,ASHRAE A Coeff,ASHRAE B Coeff,ASHRAE C Coeff,Solar Constant-Annual Variation,Eq of Time {minutes}, Solar Declination Angle {deg}, Solar Model
Environment:Design Day Data,30.60,10.10,DefaultMultipliers,99952,220,4.6,0.00,No,No
Environment:Design Day Misc,202,1084.4,0.2082,0.1365,1.0,-6.23,20.6,ASHRAETau
Environment:WarmupDays,  6
! <Tabular Report>,Style,Unit Conversion
Tabular Report,HTML,None
! <Warmup Convergence Information>,Zone Name,Environment Type/Name,Average Warmup Temperature Difference {deltaC},Std Dev Warmup Temperature Difference {deltaC},Max Temperature Pass/Fail Convergence,Min Temperature Pass/Fail Convergence,Average Warmup Load Difference {W},Std Dev Warmup Load Difference {W},Heating Load Pass/Fail Convergence,Cooling Load Pass/Fail Convergence
 Warmup Convergence Information,SP-STORY 1 EAST CORE SPACE SYS-3 FLR-1 SCH-A HPLCMT-CORE ZN,SizingPeriod: OTTAWA=MACDONALD-CARTIER INTL ANN CLG .4% CONDNS DB=>MWB,2.4365154475E-002,7.3346672353E-002,Pass,Pass,2.0378502875,23.7642504606,Pass,Pass
 Warmup Convergence Information,SP-STORY 1 EAST LEFT PERIMETER SPACE SYS-3 FLR-1 SCH-A HPLCMT-EAST ZN,SizingPeriod: OTTAWA=MACDONALD-CARTIER INTL ANN CLG .4% CONDNS DB=>MWB,0.1219468597,0.6123174124,Pass,Pass,0.7115367191,5.2968911075,Pass,Pass
 Warmup Convergence Information,SP-STORY 1 EAST RIGHT PERIMETER SPACE SYS-3 FLR-1 SCH-A HPLCMT-EAST ZN,SizingPeriod: OTTAWA=MACDONALD-CARTIER INTL ANN CLG .4% CONDNS DB=>MWB,0.1340513801,0.6599181048,Pass,Pass,0.5379742094,3.7761045535,Pass,Pass
 Warmup Convergence Information,SP-STORY 1 NORTH LEFT PERIMETER SPACE SYS-3 FLR-1 SCH-A HPLCMT-NORTH ZN,SizingPeriod: OTTAWA=MACDONALD-CARTIER INTL ANN CLG .4% CONDNS DB=>MWB,4.1823571117E-002,0.1578850496,Pass,Pass,0.2238739791,1.4814639201,Pass,Pass
 Warmup Convergence Information,SP-STORY 1 NORTH LOWER PERIMETER SPACE SYS-3 FLR-1 SCH-A HPLCMT-NORTH ZN,SizingPeriod: OTTAWA=MACDONALD-CARTIER INTL ANN CLG .4% CONDNS DB=>MWB,2.5483866086E-002,8.7041658581E-002,Pass,Pass,0.2493532568,1.3171015933,Pass,Pass
 Warmup Convergence Information,SP-STORY 1 NORTH RIGHT PERIMETER SPACE SYS-3 FLR-1 SCH-A HPLCMT-NORTH ZN,SizingPeriod: OTTAWA=MACDONALD-CARTIER INTL ANN CLG .4% CONDNS DB=>MWB,4.2021550163E-002,0.1582301675,Pass,Pass,0.2183230653,1.4600719985,Pass,Pass
 Warmup Convergence Information,SP-STORY 1 SOUTH CORE SPACE SYS-3 FLR-1 SCH-A HPLCMT-CORE ZN,SizingPeriod: OTTAWA=MACDONALD-CARTIER INTL ANN CLG .4% CONDNS DB=>MWB,2.1407493284E-002,5.9823198289E-002,Pass,Pass,0.9134565643,10.3451110686,Pass,Pass
 Warmup Convergence Information,SP-STORY 1 SOUTH LOWER PERIMETER SPACE SYS-3 FLR-1 SCH-A HPLCMT-SOUTH ZN,SizingPeriod: OTTAWA=MACDONALD-CARTIER INTL ANN CLG .4% CONDNS DB=>MWB,3.2061408842E-002,0.1210583985,Pass,Pass,0.7165540182,5.8254937653,Pass,Pass
 Warmup Convergence Information,SP-STORY 1 WEST CORE SPACE SYS-3 FLR-1 SCH-A HPLCMT-CORE ZN,SizingPeriod: OTTAWA=MACDONALD-CARTIER INTL ANN CLG .4% CONDNS DB=>MWB,2.4214200665E-002,7.3804472772E-002,Pass,Pass,2.7301277586,32.0076515021,Pass,Pass
 Warmup Convergence Information,SP-STORY 1 WEST LEFT PERIMETER SPACE SYS-3 FLR-1 SCH-A HPLCMT-WEST ZN,SizingPeriod: OTTAWA=MACDONALD-CARTIER INTL ANN CLG .4% CONDNS DB=>MWB,5.6454777229E-002,0.2560156971,Pass,Pass,0.1941718281,0.7345033585,Pass,Pass
 Warmup Convergence Information,SP-STORY 1 WEST RIGHT PERIMETER SPACE SYS-3 FLR-1 SCH-A HPLCMT-WEST ZN,SizingPeriod: OTTAWA=MACDONALD-CARTIER INTL ANN CLG .4% CONDNS DB=>MWB,5.4281129600E-002,0.2454054323,Pass,Pass,0.2008878987,0.7860838583,Pass,Pass
 Warmup Convergence Information,SP-STORY 2 EAST CORE SPACE SYS-3 FLR-2 SCH-A HPLCMT-CORE ZN,SizingPeriod: OTTAWA=MACDONALD-CARTIER INTL ANN CLG .4% CONDNS DB=>MWB,2.8411181322E-002,8.3760631450E-002,Pass,Pass,0.2658630569,2.1600422747,Pass,Pass
 Warmup Convergence Information,SP-STORY 2 EAST LEFT PERIMETER SPACE SYS-3 FLR-2 SCH-A HPLCMT-EAST ZN,SizingPeriod: OTTAWA=MACDONALD-CARTIER INTL ANN CLG .4% CONDNS DB=>MWB,0.1301527233,0.6487822478,Pass,Pass,0.2419652786,1.7664800303,Pass,Pass
 Warmup Convergence Information,SP-STORY 2 EAST RIGHT PERIMETER SPACE SYS-3 FLR-2 SCH-A HPLCMT-EAST ZN,SizingPeriod: OTTAWA=MACDONALD-CARTIER INTL ANN CLG .4% CONDNS DB=>MWB,0.1336082330,0.6662896372,Pass,Pass,0.2637128694,1.9008021332,Pass,Pass
 Warmup Convergence Information,SP-STORY 2 NORTH LEFT PERIMETER SPACE SYS-3 FLR-2 SCH-A HPLCMT-NORTH ZN,SizingPeriod: OTTAWA=MACDONALD-CARTIER INTL ANN CLG .4% CONDNS DB=>MWB,4.3102224529E-002,0.1621548611,Pass,Pass,0.1716302148,0.9430078828,Pass,Pass
 Warmup Convergence Information,SP-STORY 2 NORTH LOWER PERIMETER SPACE SYS-3 FLR-2 SCH-A HPLCMT-NORTH ZN,SizingPeriod: OTTAWA=MACDONALD-CARTIER INTL ANN CLG .4% CONDNS DB=>MWB,3.4157116552E-002,0.1214230389,Pass,Pass,0.1710578210,0.8969689139,Pass,Pass
 Warmup Convergence Information,SP-STORY 2 NORTH RIGHT PERIMETER SPACE SYS-3 FLR-2 SCH-A HPLCMT-NORTH ZN,SizingPeriod: OTTAWA=MACDONALD-CARTIER INTL ANN CLG .4% CONDNS DB=>MWB,4.3103311875E-002,0.1615023701,Pass,Pass,0.1715088377,0.9345859764,Pass,Pass
 Warmup Convergence Information,SP-STORY 2 SOUTH CORE SPACE SYS-3 FLR-2 SCH-A HPLCMT-CORE ZN,SizingPeriod: OTTAWA=MACDONALD-CARTIER INTL ANN CLG .4% CONDNS DB=>MWB,2.4547671600E-002,6.7746203962E-002,Pass,Pass,0.2450802965,1.7955390370,Pass,Pass
 Warmup Convergence Information,SP-STORY 2 SOUTH LOWER PERIMETER SPACE SYS-3 FLR-2 SCH-A HPLCMT-SOUTH ZN,SizingPeriod: OTTAWA=MACDONALD-CARTIER INTL ANN CLG .4% CONDNS DB=>MWB,3.2539050526E-002,0.1192411391,Pass,Pass,0.1520482681,0.7078213882,Pass,Pass
 Warmup Convergence Information,SP-STORY 2 WEST CORE SPACE SYS-3 FLR-2 SCH-A HPLCMT-CORE ZN,SizingPeriod: OTTAWA=MACDONALD-CARTIER INTL ANN CLG .4% CONDNS DB=>MWB,2.8022635392E-002,8.2897774008E-002,Pass,Pass,0.2819661279,2.2654019575,Pass,Pass
 Warmup Convergence Information,SP-STORY 2 WEST LEFT PERIMETER SPACE SYS-3 FLR-2 SCH-A HPLCMT-WEST ZN,SizingPeriod: OTTAWA=MACDONALD-CARTIER INTL ANN CLG .4% CONDNS DB=>MWB,4.8820598065E-002,0.2213508433,Pass,Pass,0.2637340029,1.3181789615,Pass,Pass
 Warmup Convergence Information,SP-STORY 2 WEST RIGHT PERIMETER SPACE SYS-3 FLR-2 SCH-A HPLCMT-WEST ZN,SizingPeriod: OTTAWA=MACDONALD-CARTIER INTL ANN CLG .4% CONDNS DB=>MWB,4.7567858045E-002,0.2151994783,Pass,Pass,0.2570181247,1.3578887959,Pass,Pass
Environment,OTTAWA=MACDONALD-CARTIER INTL ANN HTG 99.6% CONDNS DB,SizingPeriod:DesignDay,01/21,01/21,WinterDesignDay,1,N/A,N/A,N/A,N/A,N/A,N/A
Environment:Daylight Saving,No,SizingPeriod:DesignDay
Environment:Design Day Data,-24.20,0.00,DefaultMultipliers,99952,290,3.5,0.00,No,No
Environment:Design Day Misc, 21,1229.0,0.1415,5.7310E-002,1.0,-11.15,-20.1,ASHRAEClearSky
Environment:WarmupDays,  6
 Warmup Convergence Information,SP-STORY 1 EAST CORE SPACE SYS-3 FLR-1 SCH-A HPLCMT-CORE ZN,SizingPeriod: OTTAWA=MACDONALD-CARTIER INTL ANN HTG 99.6% CONDNS DB,5.5562227841E-002,0.2308745512,Pass,Pass,0.2004684806,0.6757586709,Pass,Pass
 Warmup Convergence Information,SP-STORY 1 EAST LEFT PERIMETER SPACE SYS-3 FLR-1 SCH-A HPLCMT-EAST ZN,SizingPeriod: OTTAWA=MACDONALD-CARTIER INTL ANN HTG 99.6% CONDNS DB,5.5557983732E-002,0.3337846237,Pass,Pass,3.5388861358E-002,0.1769141436,Pass,Pass
 Warmup Convergence Information,SP-STORY 1 EAST RIGHT PERIMETER SPACE SYS-3 FLR-1 SCH-A HPLCMT-EAST ZN,SizingPeriod: OTTAWA=MACDONALD-CARTIER INTL ANN HTG 99.6% CONDNS DB,5.5557944709E-002,0.3338283764,Pass,Pass,3.4100969684E-002,0.1688938211,Pass,Pass
 Warmup Convergence Information,SP-STORY 1 NORTH LEFT PERIMETER SPACE SYS-3 FLR-1 SCH-A HPLCMT-NORTH ZN,SizingPeriod: OTTAWA=MACDONALD-CARTIER INTL ANN HTG 99.6% CONDNS DB,5.5563118918E-002,0.3558798829,Pass,Pass,3.0878059893E-002,0.1486435892,Pass,Pass
 Warmup Convergence Information,SP-STORY 1 NORTH LOWER PERIMETER SPACE SYS-3 FLR-1 SCH-A HPLCMT-NORTH ZN,SizingPeriod: OTTAWA=MACDONALD-CARTIER INTL ANN HTG 99.6% CONDNS DB,5.5563136691E-002,0.3511710562,Pass,Pass,3.5229914252E-002,0.1756071899,Pass,Pass
 Warmup Convergence Information,SP-STORY 1 NORTH RIGHT PERIMETER SPACE SYS-3 FLR-1 SCH-A HPLCMT-NORTH ZN,SizingPeriod: OTTAWA=MACDONALD-CARTIER INTL ANN HTG 99.6% CONDNS DB,5.5563119728E-002,0.3558748937,Pass,Pass,3.0880360185E-002,0.1486568915,Pass,Pass
 Warmup Convergence Information,SP-STORY 1 SOUTH CORE SPACE SYS-3 FLR-1 SCH-A HPLCMT-CORE ZN,SizingPeriod: OTTAWA=MACDONALD-CARTIER INTL ANN HTG 99.6% CONDNS DB,5.5562637835E-002,0.2251031402,Pass,Pass,0.2498059920,0.9434832091,Pass,Pass
 Warmup Convergence Information,SP-STORY 1 SOUTH LOWER PERIMETER SPACE SYS-3 FLR-1 SCH-A HPLCMT-SOUTH ZN,SizingPeriod: OTTAWA=MACDONALD-CARTIER INTL ANN HTG 99.6% CONDNS DB,5.5559991279E-002,0.3483167054,Pass,Pass,3.2175465493E-002,0.1556386429,Pass,Pass
 Warmup Convergence Information,SP-STORY 1 WEST CORE SPACE SYS-3 FLR-1 SCH-A HPLCMT-CORE ZN,SizingPeriod: OTTAWA=MACDONALD-CARTIER INTL ANN HTG 99.6% CONDNS DB,5.5562132089E-002,0.2317776373,Pass,Pass,0.1976316494,0.6658425179,Pass,Pass
 Warmup Convergence Information,SP-STORY 1 WEST LEFT PERIMETER SPACE SYS-3 FLR-1 SCH-A HPLCMT-WEST ZN,SizingPeriod: OTTAWA=MACDONALD-CARTIER INTL ANN HTG 99.6% CONDNS DB,5.5557773325E-002,0.3320693847,Pass,Pass,3.2327122403E-002,0.1576843861,Pass,Pass
 Warmup Convergence Information,SP-STORY 1 WEST RIGHT PERIMETER SPACE SYS-3 FLR-1 SCH-A HPLCMT-WEST ZN,SizingPeriod: OTTAWA=MACDONALD-CARTIER INTL ANN HTG 99.6% CONDNS DB,5.5557785373E-002,0.3316626220,Pass,Pass,3.2594215935E-002,0.1587961877,Pass,Pass
 Warmup Convergence Information,SP-STORY 2 EAST CORE SPACE SYS-3 FLR-2 SCH-A HPLCMT-CORE ZN,SizingPeriod: OTTAWA=MACDONALD-CARTIER INTL ANN HTG 99.6% CONDNS DB,5.5559556672E-002,0.2981266727,Pass,Pass,0.1306561637,0.4588094239,Pass,Pass
 Warmup Convergence Information,SP-STORY 2 EAST LEFT PERIMETER SPACE SYS-3 FLR-2 SCH-A HPLCMT-EAST ZN,SizingPeriod: OTTAWA=MACDONALD-CARTIER INTL ANN HTG 99.6% CONDNS DB,5.5558271927E-002,0.3451605357,Pass,Pass,2.5179218668E-002,0.1084609462,Pass,Pass
 Warmup Convergence Information,SP-STORY 2 EAST RIGHT PERIMETER SPACE SYS-3 FLR-2 SCH-A HPLCMT-EAST ZN,SizingPeriod: OTTAWA=MACDONALD-CARTIER INTL ANN HTG 99.6% CONDNS DB,5.5558253263E-002,0.3453170385,Pass,Pass,2.4677263130E-002,0.1057058895,Pass,Pass
 Warmup Convergence Information,SP-STORY 2 NORTH LEFT PERIMETER SPACE SYS-3 FLR-2 SCH-A HPLCMT-NORTH ZN,SizingPeriod: OTTAWA=MACDONALD-CARTIER INTL ANN HTG 99.6% CONDNS DB,5.5562434702E-002,0.3634496528,Pass,Pass,2.4185777261E-002,0.1031181541,Pass,Pass
 Warmup Convergence Information,SP-STORY 2 NORTH LOWER PERIMETER SPACE SYS-3 FLR-2 SCH-A HPLCMT-NORTH ZN,SizingPeriod: OTTAWA=MACDONALD-CARTIER INTL ANN HTG 99.6% CONDNS DB,5.5562167365E-002,0.3606982656,Pass,Pass,2.6430015973E-002,0.1149045333,Pass,Pass
 Warmup Convergence Information,SP-STORY 2 NORTH RIGHT PERIMETER SPACE SYS-3 FLR-2 SCH-A HPLCMT-NORTH ZN,SizingPeriod: OTTAWA=MACDONALD-CARTIER INTL ANN HTG 99.6% CONDNS DB,5.5562433512E-002,0.3634463298,Pass,Pass,2.4188525072E-002,0.1031341484,Pass,Pass
 Warmup Convergence Information,SP-STORY 2 SOUTH CORE SPACE SYS-3 FLR-2 SCH-A HPLCMT-CORE ZN,SizingPeriod: OTTAWA=MACDONALD-CARTIER INTL ANN HTG 99.6% CONDNS DB,5.5559465221E-002,0.2973755224,Pass,Pass,0.1124230441,0.3333710217,Pass,Pass
 Warmup Convergence Information,SP-STORY 2 SOUTH LOWER PERIMETER SPACE SYS-3 FLR-2 SCH-A HPLCMT-SOUTH ZN,SizingPeriod: OTTAWA=MACDONALD-CARTIER INTL ANN HTG 99.6% CONDNS DB,5.5559963718E-002,0.3562750008,Pass,Pass,2.4790281658E-002,0.1055408160,Pass,Pass
 Warmup Convergence Information,SP-STORY 2 WEST CORE SPACE SYS-3 FLR-2 SCH-A HPLCMT-CORE ZN,SizingPeriod: OTTAWA=MACDONALD-CARTIER INTL ANN HTG 99.6% CONDNS DB,5.5559542830E-002,0.2982288599,Pass,Pass,0.1370294686,0.5118245902,Pass,Pass
 Warmup Convergence Information,SP-STORY 2 WEST LEFT PERIMETER SPACE SYS-3 FLR-2 SCH-A HPLCMT-WEST ZN,SizingPeriod: OTTAWA=MACDONALD-CARTIER INTL ANN HTG 99.6% CONDNS DB,5.5558061751E-002,0.3434682256,Pass,Pass,2.4329709125E-002,0.1041711307,Pass,Pass
 Warmup Convergence Information,SP-STORY 2 WEST RIGHT PERIMETER SPACE SYS-3 FLR-2 SCH-A HPLCMT-WEST ZN,SizingPeriod: OTTAWA=MACDONALD-CARTIER INTL ANN HTG 99.6% CONDNS DB,5.5558066902E-002,0.3432143309,Pass,Pass,2.4803794308E-002,0.1066309492,Pass,Pass
! <Program Control Information:Threads/Parallel Sims>, Threading Supported,Maximum Number of Threads, Env Set Threads (OMP_NUM_THREADS), EP Env Set Threads (EP_OMP_NUM_THREADS), IDF Set Threads, Number of Threads Used (Interior Radiant Exchange), Number Nominal Surfaces, Number Parallel Sims
Program Control:Threads/Parallel Sims, No,1, N/A, N/A, N/A, N/A, N/A, N/A
End of Data
