! Program Version,EnergyPlus, Version 9.1.0-fafb9d5652, YMD=2019.10.28 18:37,
! Output:Meter Objects (applicable to this run)
Output:Meter,Electricity:Facility,hourly; !- [J]
Output:Meter:Cumulative,Electricity:Facility,hourly; !- [J]
Output:Meter,Electricity:Building,hourly; !- [J]
Output:Meter:Cumulative,Electricity:Building,hourly; !- [J]
Output:Meter,Electricity:Zone:ALL_ST=WHOLEBUILDING_FL=STORY 1_SCH=A,hourly; !- [J]
Output:Meter:Cumulative,Electricity:Zone:ALL_ST=WHOLEBUILDING_FL=STORY 1_SCH=A,hourly; !- [J]
Output:Meter,InteriorLights:Electricity,hourly; !- [J]
Output:Meter:Cumulative,InteriorLights:Electricity,hourly; !- [J]
Output:Meter,InteriorLights:Electricity:Zone:ALL_ST=WHOLEBUILDING_FL=STORY 1_SCH=A,hourly; !- [J]
Output:Meter:Cumulative,InteriorLights:Electricity:Zone:ALL_ST=WHOLEBUILDING_FL=STORY 1_SCH=A,hourly; !- [J]
Output:Meter,General:InteriorLights:Electricity,hourly; !- [J]
Output:Meter:Cumulative,General:InteriorLights:Electricity,hourly; !- [J]
Output:Meter,Electricity:Zone:ALL_ST=WHOLEBUILDING_FL=STORY 1_SCH=A 1,hourly; !- [J]
Output:Meter:Cumulative,Electricity:Zone:ALL_ST=WHOLEBUILDING_FL=STORY 1_SCH=A 1,hourly; !- [J]
Output:Meter,InteriorLights:Electricity:Zone:ALL_ST=WHOLEBUILDING_FL=STORY 1_SCH=A 1,hourly; !- [J]
Output:Meter:Cumulative,InteriorLights:Electricity:Zone:ALL_ST=WHOLEBUILDING_FL=STORY 1_SCH=A 1,hourly; !- [J]
Output:Meter,Electricity:Zone:ALL_ST=WHOLEBUILDING_FL=STORY 1_SCH=A 2,hourly; !- [J]
Output:Meter:Cumulative,Electricity:Zone:ALL_ST=WHOLEBUILDING_FL=STORY 1_SCH=A 2,hourly; !- [J]
Output:Meter,InteriorLights:Electricity:Zone:ALL_ST=WHOLEBUILDING_FL=STORY 1_SCH=A 2,hourly; !- [J]
Output:Meter:Cumulative,InteriorLights:Electricity:Zone:ALL_ST=WHOLEBUILDING_FL=STORY 1_SCH=A 2,hourly; !- [J]
Output:Meter,Electricity:Zone:ALL_ST=WHOLEBUILDING_FL=STORY 1_SCH=A 3,hourly; !- [J]
Output:Meter:Cumulative,Electricity:Zone:ALL_ST=WHOLEBUILDING_FL=STORY 1_SCH=A 3,hourly; !- [J]
Output:Meter,InteriorLights:Electricity:Zone:ALL_ST=WHOLEBUILDING_FL=STORY 1_SCH=A 3,hourly; !- [J]
Output:Meter:Cumulative,InteriorLights:Electricity:Zone:ALL_ST=WHOLEBUILDING_FL=STORY 1_SCH=A 3,hourly; !- [J]
Output:Meter,Electricity:Zone:ALL_ST=WHOLEBUILDING_FL=STORY 1_SCH=A 4,hourly; !- [J]
Output:Meter:Cumulative,Electricity:Zone:ALL_ST=WHOLEBUILDING_FL=STORY 1_SCH=A 4,hourly; !- [J]
Output:Meter,InteriorLights:Electricity:Zone:ALL_ST=WHOLEBUILDING_FL=STORY 1_SCH=A 4,hourly; !- [J]
Output:Meter:Cumulative,InteriorLights:Electricity:Zone:ALL_ST=WHOLEBUILDING_FL=STORY 1_SCH=A 4,hourly; !- [J]
Output:Meter,Electricity:Zone:ALL_ST=WHOLEBUILDING_FL=STORY 2_SCH=A,hourly; !- [J]
Output:Meter:Cumulative,Electricity:Zone:ALL_ST=WHOLEBUILDING_FL=STORY 2_SCH=A,hourly; !- [J]
Output:Meter,InteriorLights:Electricity:Zone:ALL_ST=WHOLEBUILDING_FL=STORY 2_SCH=A,hourly; !- [J]
Output:Meter:Cumulative,InteriorLights:Electricity:Zone:ALL_ST=WHOLEBUILDING_FL=STORY 2_SCH=A,hourly; !- [J]
Output:Meter,Electricity:Zone:ALL_ST=WHOLEBUILDING_FL=STORY 2_SCH=A 1,hourly; !- [J]
Output:Meter:Cumulative,Electricity:Zone:ALL_ST=WHOLEBUILDING_FL=STORY 2_SCH=A 1,hourly; !- [J]
Output:Meter,InteriorLights:Electricity:Zone:ALL_ST=WHOLEBUILDING_FL=STORY 2_SCH=A 1,hourly; !- [J]
Output:Meter:Cumulative,InteriorLights:Electricity:Zone:ALL_ST=WHOLEBUILDING_FL=STORY 2_SCH=A 1,hourly; !- [J]
Output:Meter,Electricity:Zone:ALL_ST=WHOLEBUILDING_FL=STORY 2_SCH=A 2,hourly; !- [J]
Output:Meter:Cumulative,Electricity:Zone:ALL_ST=WHOLEBUILDING_FL=STORY 2_SCH=A 2,hourly; !- [J]
Output:Meter,InteriorLights:Electricity:Zone:ALL_ST=WHOLEBUILDING_FL=STORY 2_SCH=A 2,hourly; !- [J]
Output:Meter:Cumulative,InteriorLights:Electricity:Zone:ALL_ST=WHOLEBUILDING_FL=STORY 2_SCH=A 2,hourly; !- [J]
Output:Meter,Electricity:Zone:ALL_ST=WHOLEBUILDING_FL=STORY 2_SCH=A 3,hourly; !- [J]
Output:Meter:Cumulative,Electricity:Zone:ALL_ST=WHOLEBUILDING_FL=STORY 2_SCH=A 3,hourly; !- [J]
Output:Meter,InteriorLights:Electricity:Zone:ALL_ST=WHOLEBUILDING_FL=STORY 2_SCH=A 3,hourly; !- [J]
Output:Meter:Cumulative,InteriorLights:Electricity:Zone:ALL_ST=WHOLEBUILDING_FL=STORY 2_SCH=A 3,hourly; !- [J]
Output:Meter,Electricity:Zone:ALL_ST=WHOLEBUILDING_FL=STORY 2_SCH=A 4,hourly; !- [J]
Output:Meter:Cumulative,Electricity:Zone:ALL_ST=WHOLEBUILDING_FL=STORY 2_SCH=A 4,hourly; !- [J]
Output:Meter,InteriorLights:Electricity:Zone:ALL_ST=WHOLEBUILDING_FL=STORY 2_SCH=A 4,hourly; !- [J]
Output:Meter:Cumulative,InteriorLights:Electricity:Zone:ALL_ST=WHOLEBUILDING_FL=STORY 2_SCH=A 4,hourly; !- [J]
Output:Meter,InteriorEquipment:Electricity,hourly; !- [J]
Output:Meter:Cumulative,InteriorEquipment:Electricity,hourly; !- [J]
Output:Meter,InteriorEquipment:Electricity:Zone:ALL_ST=WHOLEBUILDING_FL=STORY 1_SCH=A,hourly; !- [J]
Output:Meter:Cumulative,InteriorEquipment:Electricity:Zone:ALL_ST=WHOLEBUILDING_FL=STORY 1_SCH=A,hourly; !- [J]
Output:Meter,General:InteriorEquipment:Electricity,hourly; !- [J]
Output:Meter:Cumulative,General:InteriorEquipment:Electricity,hourly; !- [J]
Output:Meter,InteriorEquipment:Electricity:Zone:ALL_ST=WHOLEBUILDING_FL=STORY 1_SCH=A 1,hourly; !- [J]
Output:Meter:Cumulative,InteriorEquipment:Electricity:Zone:ALL_ST=WHOLEBUILDING_FL=STORY 1_SCH=A 1,hourly; !- [J]
Output:Meter,InteriorEquipment:Electricity:Zone:ALL_ST=WHOLEBUILDING_FL=STORY 1_SCH=A 2,hourly; !- [J]
Output:Meter:Cumulative,InteriorEquipment:Electricity:Zone:ALL_ST=WHOLEBUILDING_FL=STORY 1_SCH=A 2,hourly; !- [J]
Output:Meter,InteriorEquipment:Electricity:Zone:ALL_ST=WHOLEBUILDING_FL=STORY 1_SCH=A 3,hourly; !- [J]
Output:Meter:Cumulative,InteriorEquipment:Electricity:Zone:ALL_ST=WHOLEBUILDING_FL=STORY 1_SCH=A 3,hourly; !- [J]
Output:Meter,InteriorEquipment:Electricity:Zone:ALL_ST=WHOLEBUILDING_FL=STORY 1_SCH=A 4,hourly; !- [J]
Output:Meter:Cumulative,InteriorEquipment:Electricity:Zone:ALL_ST=WHOLEBUILDING_FL=STORY 1_SCH=A 4,hourly; !- [J]
Output:Meter,InteriorEquipment:Electricity:Zone:ALL_ST=WHOLEBUILDING_FL=STORY 2_SCH=A,hourly; !- [J]
Output:Meter:Cumulative,InteriorEquipment:Electricity:Zone:ALL_ST=WHOLEBUILDING_FL=STORY 2_SCH=A,hourly; !- [J]
Output:Meter,InteriorEquipment:Electricity:Zone:ALL_ST=WHOLEBUILDING_FL=STORY 2_SCH=A 1,hourly; !- [J]
Output:Meter:Cumulative,InteriorEquipment:Electricity:Zone:ALL_ST=WHOLEBUILDING_FL=STORY 2_SCH=A 1,hourly; !- [J]
Output:Meter,InteriorEquipment:Electricity:Zone:ALL_ST=WHOLEBUILDING_FL=STORY 2_SCH=A 2,hourly; !- [J]
Output:Meter:Cumulative,InteriorEquipment:Electricity:Zone:ALL_ST=WHOLEBUILDING_FL=STORY 2_SCH=A 2,hourly; !- [J]
Output:Meter,InteriorEquipment:Electricity:Zone:ALL_ST=WHOLEBUILDING_FL=STORY 2_SCH=A 3,hourly; !- [J]
Output:Meter:Cumulative,InteriorEquipment:Electricity:Zone:ALL_ST=WHOLEBUILDING_FL=STORY 2_SCH=A 3,hourly; !- [J]
Output:Meter,InteriorEquipment:Electricity:Zone:ALL_ST=WHOLEBUILDING_FL=STORY 2_SCH=A 4,hourly; !- [J]
Output:Meter:Cumulative,InteriorEquipment:Electricity:Zone:ALL_ST=WHOLEBUILDING_FL=STORY 2_SCH=A 4,hourly; !- [J]
Output:Meter,PlantLoopHeatingDemand:Facility,hourly; !- [J]
Output:Meter:Cumulative,PlantLoopHeatingDemand:Facility,hourly; !- [J]
Output:Meter,PlantLoopHeatingDemand:Plant,hourly; !- [J]
Output:Meter:Cumulative,PlantLoopHeatingDemand:Plant,hourly; !- [J]
Output:Meter,WaterSystems:PlantLoopHeatingDemand,hourly; !- [J]
Output:Meter:Cumulative,WaterSystems:PlantLoopHeatingDemand,hourly; !- [J]
Output:Meter,General:WaterSystems:PlantLoopHeatingDemand,hourly; !- [J]
Output:Meter:Cumulative,General:WaterSystems:PlantLoopHeatingDemand,hourly; !- [J]
Output:Meter,Gas:Facility,hourly; !- [J]
Output:Meter:Cumulative,Gas:Facility,hourly; !- [J]
Output:Meter,Gas:Plant,hourly; !- [J]
Output:Meter:Cumulative,Gas:Plant,hourly; !- [J]
Output:Meter,WaterSystems:Gas,hourly; !- [J]
Output:Meter:Cumulative,WaterSystems:Gas,hourly; !- [J]
Output:Meter,General:WaterSystems:Gas,hourly; !- [J]
Output:Meter:Cumulative,General:WaterSystems:Gas,hourly; !- [J]
Output:Meter,Water:Facility,hourly; !- [m3]
Output:Meter:Cumulative,Water:Facility,hourly; !- [m3]
Output:Meter,Water:Plant,hourly; !- [m3]
Output:Meter:Cumulative,Water:Plant,hourly; !- [m3]
Output:Meter,WaterSystems:Water,hourly; !- [m3]
Output:Meter:Cumulative,WaterSystems:Water,hourly; !- [m3]
Output:Meter,General:WaterSystems:Water,hourly; !- [m3]
Output:Meter:Cumulative,General:WaterSystems:Water,hourly; !- [m3]
Output:Meter,MainsWater:Facility,hourly; !- [m3]
Output:Meter:Cumulative,MainsWater:Facility,hourly; !- [m3]
Output:Meter,MainsWater:Plant,hourly; !- [m3]
Output:Meter:Cumulative,MainsWater:Plant,hourly; !- [m3]
Output:Meter,WaterSystems:MainsWater,hourly; !- [m3]
Output:Meter:Cumulative,WaterSystems:MainsWater,hourly; !- [m3]
Output:Meter,General:WaterSystems:MainsWater,hourly; !- [m3]
Output:Meter:Cumulative,General:WaterSystems:MainsWater,hourly; !- [m3]
Output:Meter,EnergyTransfer:Facility,hourly; !- [J]
Output:Meter:Cumulative,EnergyTransfer:Facility,hourly; !- [J]
Output:Meter,EnergyTransfer:Building,hourly; !- [J]
Output:Meter:Cumulative,EnergyTransfer:Building,hourly; !- [J]
Output:Meter,EnergyTransfer:Zone:ALL_ST=WHOLEBUILDING_FL=STORY 1_SCH=A,hourly; !- [J]
Output:Meter:Cumulative,EnergyTransfer:Zone:ALL_ST=WHOLEBUILDING_FL=STORY 1_SCH=A,hourly; !- [J]
Output:Meter,Heating:EnergyTransfer,hourly; !- [J]
Output:Meter:Cumulative,Heating:EnergyTransfer,hourly; !- [J]
Output:Meter,Heating:EnergyTransfer:Zone:ALL_ST=WHOLEBUILDING_FL=STORY 1_SCH=A,hourly; !- [J]
Output:Meter:Cumulative,Heating:EnergyTransfer:Zone:ALL_ST=WHOLEBUILDING_FL=STORY 1_SCH=A,hourly; !- [J]
Output:Meter,Cooling:EnergyTransfer,hourly; !- [J]
Output:Meter:Cumulative,Cooling:EnergyTransfer,hourly; !- [J]
Output:Meter,Cooling:EnergyTransfer:Zone:ALL_ST=WHOLEBUILDING_FL=STORY 1_SCH=A,hourly; !- [J]
Output:Meter:Cumulative,Cooling:EnergyTransfer:Zone:ALL_ST=WHOLEBUILDING_FL=STORY 1_SCH=A,hourly; !- [J]
Output:Meter,EnergyTransfer:Zone:ALL_ST=WHOLEBUILDING_FL=STORY 1_SCH=A 1,hourly; !- [J]
Output:Meter:Cumulative,EnergyTransfer:Zone:ALL_ST=WHOLEBUILDING_FL=STORY 1_SCH=A 1,hourly; !- [J]
Output:Meter,Heating:EnergyTransfer:Zone:ALL_ST=WHOLEBUILDING_FL=STORY 1_SCH=A 1,hourly; !- [J]
Output:Meter:Cumulative,Heating:EnergyTransfer:Zone:ALL_ST=WHOLEBUILDING_FL=STORY 1_SCH=A 1,hourly; !- [J]
Output:Meter,Cooling:EnergyTransfer:Zone:ALL_ST=WHOLEBUILDING_FL=STORY 1_SCH=A 1,hourly; !- [J]
Output:Meter:Cumulative,Cooling:EnergyTransfer:Zone:ALL_ST=WHOLEBUILDING_FL=STORY 1_SCH=A 1,hourly; !- [J]
Output:Meter,EnergyTransfer:Zone:ALL_ST=WHOLEBUILDING_FL=STORY 1_SCH=A 2,hourly; !- [J]
Output:Meter:Cumulative,EnergyTransfer:Zone:ALL_ST=WHOLEBUILDING_FL=STORY 1_SCH=A 2,hourly; !- [J]
Output:Meter,Heating:EnergyTransfer:Zone:ALL_ST=WHOLEBUILDING_FL=STORY 1_SCH=A 2,hourly; !- [J]
Output:Meter:Cumulative,Heating:EnergyTransfer:Zone:ALL_ST=WHOLEBUILDING_FL=STORY 1_SCH=A 2,hourly; !- [J]
Output:Meter,Cooling:EnergyTransfer:Zone:ALL_ST=WHOLEBUILDING_FL=STORY 1_SCH=A 2,hourly; !- [J]
Output:Meter:Cumulative,Cooling:EnergyTransfer:Zone:ALL_ST=WHOLEBUILDING_FL=STORY 1_SCH=A 2,hourly; !- [J]
Output:Meter,EnergyTransfer:Zone:ALL_ST=WHOLEBUILDING_FL=STORY 1_SCH=A 3,hourly; !- [J]
Output:Meter:Cumulative,EnergyTransfer:Zone:ALL_ST=WHOLEBUILDING_FL=STORY 1_SCH=A 3,hourly; !- [J]
Output:Meter,Heating:EnergyTransfer:Zone:ALL_ST=WHOLEBUILDING_FL=STORY 1_SCH=A 3,hourly; !- [J]
Output:Meter:Cumulative,Heating:EnergyTransfer:Zone:ALL_ST=WHOLEBUILDING_FL=STORY 1_SCH=A 3,hourly; !- [J]
Output:Meter,Cooling:EnergyTransfer:Zone:ALL_ST=WHOLEBUILDING_FL=STORY 1_SCH=A 3,hourly; !- [J]
Output:Meter:Cumulative,Cooling:EnergyTransfer:Zone:ALL_ST=WHOLEBUILDING_FL=STORY 1_SCH=A 3,hourly; !- [J]
Output:Meter,EnergyTransfer:Zone:ALL_ST=WHOLEBUILDING_FL=STORY 1_SCH=A 4,hourly; !- [J]
Output:Meter:Cumulative,EnergyTransfer:Zone:ALL_ST=WHOLEBUILDING_FL=STORY 1_SCH=A 4,hourly; !- [J]
Output:Meter,Heating:EnergyTransfer:Zone:ALL_ST=WHOLEBUILDING_FL=STORY 1_SCH=A 4,hourly; !- [J]
Output:Meter:Cumulative,Heating:EnergyTransfer:Zone:ALL_ST=WHOLEBUILDING_FL=STORY 1_SCH=A 4,hourly; !- [J]
Output:Meter,Cooling:EnergyTransfer:Zone:ALL_ST=WHOLEBUILDING_FL=STORY 1_SCH=A 4,hourly; !- [J]
Output:Meter:Cumulative,Cooling:EnergyTransfer:Zone:ALL_ST=WHOLEBUILDING_FL=STORY 1_SCH=A 4,hourly; !- [J]
Output:Meter,EnergyTransfer:Zone:ALL_ST=WHOLEBUILDING_FL=STORY 2_SCH=A,hourly; !- [J]
Output:Meter:Cumulative,EnergyTransfer:Zone:ALL_ST=WHOLEBUILDING_FL=STORY 2_SCH=A,hourly; !- [J]
Output:Meter,Heating:EnergyTransfer:Zone:ALL_ST=WHOLEBUILDING_FL=STORY 2_SCH=A,hourly; !- [J]
Output:Meter:Cumulative,Heating:EnergyTransfer:Zone:ALL_ST=WHOLEBUILDING_FL=STORY 2_SCH=A,hourly; !- [J]
Output:Meter,Cooling:EnergyTransfer:Zone:ALL_ST=WHOLEBUILDING_FL=STORY 2_SCH=A,hourly; !- [J]
Output:Meter:Cumulative,Cooling:EnergyTransfer:Zone:ALL_ST=WHOLEBUILDING_FL=STORY 2_SCH=A,hourly; !- [J]
Output:Meter,EnergyTransfer:Zone:ALL_ST=WHOLEBUILDING_FL=STORY 2_SCH=A 1,hourly; !- [J]
Output:Meter:Cumulative,EnergyTransfer:Zone:ALL_ST=WHOLEBUILDING_FL=STORY 2_SCH=A 1,hourly; !- [J]
Output:Meter,Heating:EnergyTransfer:Zone:ALL_ST=WHOLEBUILDING_FL=STORY 2_SCH=A 1,hourly; !- [J]
Output:Meter:Cumulative,Heating:EnergyTransfer:Zone:ALL_ST=WHOLEBUILDING_FL=STORY 2_SCH=A 1,hourly; !- [J]
Output:Meter,Cooling:EnergyTransfer:Zone:ALL_ST=WHOLEBUILDING_FL=STORY 2_SCH=A 1,hourly; !- [J]
Output:Meter:Cumulative,Cooling:EnergyTransfer:Zone:ALL_ST=WHOLEBUILDING_FL=STORY 2_SCH=A 1,hourly; !- [J]
Output:Meter,EnergyTransfer:Zone:ALL_ST=WHOLEBUILDING_FL=STORY 2_SCH=A 2,hourly; !- [J]
Output:Meter:Cumulative,EnergyTransfer:Zone:ALL_ST=WHOLEBUILDING_FL=STORY 2_SCH=A 2,hourly; !- [J]
Output:Meter,Heating:EnergyTransfer:Zone:ALL_ST=WHOLEBUILDING_FL=STORY 2_SCH=A 2,hourly; !- [J]
Output:Meter:Cumulative,Heating:EnergyTransfer:Zone:ALL_ST=WHOLEBUILDING_FL=STORY 2_SCH=A 2,hourly; !- [J]
Output:Meter,Cooling:EnergyTransfer:Zone:ALL_ST=WHOLEBUILDING_FL=STORY 2_SCH=A 2,hourly; !- [J]
Output:Meter:Cumulative,Cooling:EnergyTransfer:Zone:ALL_ST=WHOLEBUILDING_FL=STORY 2_SCH=A 2,hourly; !- [J]
Output:Meter,EnergyTransfer:Zone:ALL_ST=WHOLEBUILDING_FL=STORY 2_SCH=A 3,hourly; !- [J]
Output:Meter:Cumulative,EnergyTransfer:Zone:ALL_ST=WHOLEBUILDING_FL=STORY 2_SCH=A 3,hourly; !- [J]
Output:Meter,Heating:EnergyTransfer:Zone:ALL_ST=WHOLEBUILDING_FL=STORY 2_SCH=A 3,hourly; !- [J]
Output:Meter:Cumulative,Heating:EnergyTransfer:Zone:ALL_ST=WHOLEBUILDING_FL=STORY 2_SCH=A 3,hourly; !- [J]
Output:Meter,Cooling:EnergyTransfer:Zone:ALL_ST=WHOLEBUILDING_FL=STORY 2_SCH=A 3,hourly; !- [J]
Output:Meter:Cumulative,Cooling:EnergyTransfer:Zone:ALL_ST=WHOLEBUILDING_FL=STORY 2_SCH=A 3,hourly; !- [J]
Output:Meter,EnergyTransfer:Zone:ALL_ST=WHOLEBUILDING_FL=STORY 2_SCH=A 4,hourly; !- [J]
Output:Meter:Cumulative,EnergyTransfer:Zone:ALL_ST=WHOLEBUILDING_FL=STORY 2_SCH=A 4,hourly; !- [J]
Output:Meter,Heating:EnergyTransfer:Zone:ALL_ST=WHOLEBUILDING_FL=STORY 2_SCH=A 4,hourly; !- [J]
Output:Meter:Cumulative,Heating:EnergyTransfer:Zone:ALL_ST=WHOLEBUILDING_FL=STORY 2_SCH=A 4,hourly; !- [J]
Output:Meter,Cooling:EnergyTransfer:Zone:ALL_ST=WHOLEBUILDING_FL=STORY 2_SCH=A 4,hourly; !- [J]
Output:Meter:Cumulative,Cooling:EnergyTransfer:Zone:ALL_ST=WHOLEBUILDING_FL=STORY 2_SCH=A 4,hourly; !- [J]
Output:Meter,EnergyTransfer:Plant,hourly; !- [J]
Output:Meter:Cumulative,EnergyTransfer:Plant,hourly; !- [J]
Output:Meter,WaterSystems:EnergyTransfer,hourly; !- [J]
Output:Meter:Cumulative,WaterSystems:EnergyTransfer,hourly; !- [J]
Output:Meter,General:WaterSystems:EnergyTransfer,hourly; !- [J]
Output:Meter:Cumulative,General:WaterSystems:EnergyTransfer,hourly; !- [J]
Output:Meter,ElectricityPurchased:Facility,hourly; !- [J]
Output:Meter:Cumulative,ElectricityPurchased:Facility,hourly; !- [J]
Output:Meter,ElectricityPurchased:Plant,hourly; !- [J]
Output:Meter:Cumulative,ElectricityPurchased:Plant,hourly; !- [J]
Output:Meter,Cogeneration:ElectricityPurchased,hourly; !- [J]
Output:Meter:Cumulative,Cogeneration:ElectricityPurchased,hourly; !- [J]
Output:Meter,ElectricitySurplusSold:Facility,hourly; !- [J]
Output:Meter:Cumulative,ElectricitySurplusSold:Facility,hourly; !- [J]
Output:Meter,ElectricitySurplusSold:Plant,hourly; !- [J]
Output:Meter:Cumulative,ElectricitySurplusSold:Plant,hourly; !- [J]
Output:Meter,Cogeneration:ElectricitySurplusSold,hourly; !- [J]
Output:Meter:Cumulative,Cogeneration:ElectricitySurplusSold,hourly; !- [J]
Output:Meter,ElectricityNet:Facility,hourly; !- [J]
Output:Meter:Cumulative,ElectricityNet:Facility,hourly; !- [J]
Output:Meter,ElectricityNet:Plant,hourly; !- [J]
Output:Meter:Cumulative,ElectricityNet:Plant,hourly; !- [J]
Output:Meter,Cogeneration:ElectricityNet,hourly; !- [J]
Output:Meter:Cumulative,Cogeneration:ElectricityNet,hourly; !- [J]
Output:Meter,EnergyTransfer:HVAC,hourly; !- [J]
Output:Meter:Cumulative,EnergyTransfer:HVAC,hourly; !- [J]
Output:Meter,Baseboard:EnergyTransfer,hourly; !- [J]
Output:Meter:Cumulative,Baseboard:EnergyTransfer,hourly; !- [J]
Output:Meter,PlantLoopHeatingDemand:HVAC,hourly; !- [J]
Output:Meter:Cumulative,PlantLoopHeatingDemand:HVAC,hourly; !- [J]
Output:Meter,Baseboard:PlantLoopHeatingDemand,hourly; !- [J]
Output:Meter:Cumulative,Baseboard:PlantLoopHeatingDemand,hourly; !- [J]
Output:Meter,Electricity:HVAC,hourly; !- [J]
Output:Meter:Cumulative,Electricity:HVAC,hourly; !- [J]
Output:Meter,Fans:Electricity,hourly; !- [J]
Output:Meter:Cumulative,Fans:Electricity,hourly; !- [J]
Output:Meter,General:Fans:Electricity,hourly; !- [J]
Output:Meter:Cumulative,General:Fans:Electricity,hourly; !- [J]
Output:Meter,CoolingCoils:EnergyTransfer,hourly; !- [J]
Output:Meter:Cumulative,CoolingCoils:EnergyTransfer,hourly; !- [J]
Output:Meter,Cooling:Electricity,hourly; !- [J]
Output:Meter:Cumulative,Cooling:Electricity,hourly; !- [J]
Output:Meter,HeatingCoils:EnergyTransfer,hourly; !- [J]
Output:Meter:Cumulative,HeatingCoils:EnergyTransfer,hourly; !- [J]
Output:Meter,Gas:HVAC,hourly; !- [J]
Output:Meter:Cumulative,Gas:HVAC,hourly; !- [J]
Output:Meter,Heating:Gas,hourly; !- [J]
Output:Meter:Cumulative,Heating:Gas,hourly; !- [J]
Output:Meter,Heating:Electricity,hourly; !- [J]
Output:Meter:Cumulative,Heating:Electricity,hourly; !- [J]
Output:Meter,Boilers:EnergyTransfer,hourly; !- [J]
Output:Meter:Cumulative,Boilers:EnergyTransfer,hourly; !- [J]
Output:Meter,General:Heating:Gas,hourly; !- [J]
Output:Meter:Cumulative,General:Heating:Gas,hourly; !- [J]
Output:Meter,Electricity:Plant,hourly; !- [J]
Output:Meter:Cumulative,Electricity:Plant,hourly; !- [J]
Output:Meter,Boiler Parasitic:Heating:Electricity,hourly; !- [J]
Output:Meter:Cumulative,Boiler Parasitic:Heating:Electricity,hourly; !- [J]
Output:Meter,Pumps:Electricity,hourly; !- [J]
Output:Meter:Cumulative,Pumps:Electricity,hourly; !- [J]
Output:Meter,General:Pumps:Electricity,hourly; !- [J]
Output:Meter:Cumulative,General:Pumps:Electricity,hourly; !- [J]
Output:Meter,Carbon Equivalent:Facility,hourly; !- [kg]
Output:Meter:Cumulative,Carbon Equivalent:Facility,hourly; !- [kg]
Output:Meter,CarbonEquivalentEmissions:Carbon Equivalent,hourly; !- [kg]
Output:Meter:Cumulative,CarbonEquivalentEmissions:Carbon Equivalent,hourly; !- [kg]
