Program Version,EnergyPlus, Version 8.9.0-eba93e8e1b, YMD=2019.05.01 16:02
! <Version>, Version ID
 Version, 8.9
! <Timesteps per Hour>, #TimeSteps, Minutes per TimeStep {minutes}
 Timesteps per Hour,  6, 10
! <System Convergence Limits>, Minimum System TimeStep {minutes}, Max HVAC Iterations, Minimum Plant Iterations, Maximum Plant Iterations
 System Convergence Limits, 1, 20, 2, 8
! <Simulation Control>, Do Zone Sizing, Do System Sizing, Do Plant Sizing, Do Design Days, Do Weather Simulation, Do HVAC Sizing Simulation
 Simulation Control, Yes, Yes, Yes, Yes, No, No
! <Output Reporting Tolerances>, Tolerance for Time Heating Setpoint Not Met, Tolerance for Zone Cooling Setpoint Not Met Time
 Output Reporting Tolerances, 1.000, 1.000, 
! <Site:GroundTemperature:BuildingSurface>,Jan{C},Feb{C},Mar{C},Apr{C},May{C},Jun{C},Jul{C},Aug{C},Sep{C},Oct{C},Nov{C},Dec{C}
 Site:GroundTemperature:BuildingSurface,  18.00,  18.00,  18.00,  18.00,  18.00,  18.00,  18.00,  18.00,  18.00,  18.00,  18.00,  18.00
! <Site:GroundTemperature:FCfactorMethod>,Jan{C},Feb{C},Mar{C},Apr{C},May{C},Jun{C},Jul{C},Aug{C},Sep{C},Oct{C},Nov{C},Dec{C}
 Site:GroundTemperature:FCfactorMethod,  -5.97,  -7.23,  -4.99,  -1.50,   7.64,  14.69,  19.45,  20.90,  18.43,  12.96,   5.64,  -1.15
! <Site:GroundTemperature:Shallow>,Jan{C},Feb{C},Mar{C},Apr{C},May{C},Jun{C},Jul{C},Aug{C},Sep{C},Oct{C},Nov{C},Dec{C}
 Site:GroundTemperature:Shallow,  13.00,  13.00,  13.00,  13.00,  13.00,  13.00,  13.00,  13.00,  13.00,  13.00,  13.00,  13.00
! <Site:GroundTemperature:Deep>,Jan{C},Feb{C},Mar{C},Apr{C},May{C},Jun{C},Jul{C},Aug{C},Sep{C},Oct{C},Nov{C},Dec{C}
 Site:GroundTemperature:Deep,  16.00,  16.00,  16.00,  16.00,  16.00,  16.00,  16.00,  16.00,  16.00,  16.00,  16.00,  16.00
! <Site:GroundReflectance>,Jan{dimensionless},Feb{dimensionless},Mar{dimensionless},Apr{dimensionless},May{dimensionless},Jun{dimensionless},Jul{dimensionless},Aug{dimensionless},Sep{dimensionless},Oct{dimensionless},Nov{dimensionless},Dec{dimensionless}
 Site:GroundReflectance,  0.20,  0.20,  0.20,  0.20,  0.20,  0.20,  0.20,  0.20,  0.20,  0.20,  0.20,  0.20
! <Site:GroundReflectance:SnowModifier>, Normal, Daylighting {dimensionless}
 Site:GroundReflectance:SnowModifier,   1.000,   1.000
! <Site:GroundReflectance:Snow>,Jan{dimensionless},Feb{dimensionless},Mar{dimensionless},Apr{dimensionless},May{dimensionless},Jun{dimensionless},Jul{dimensionless},Aug{dimensionless},Sep{dimensionless},Oct{dimensionless},Nov{dimensionless},Dec{dimensionless}
 Site:GroundReflectance:Snow,  0.20,  0.20,  0.20,  0.20,  0.20,  0.20,  0.20,  0.20,  0.20,  0.20,  0.20,  0.20
! <Site:GroundReflectance:Snow:Daylighting>,Jan{dimensionless},Feb{dimensionless},Mar{dimensionless},Apr{dimensionless},May{dimensionless},Jun{dimensionless},Jul{dimensionless},Aug{dimensionless},Sep{dimensionless},Oct{dimensionless},Nov{dimensionless},Dec{dimensionless}
 Site:GroundReflectance:Snow:Daylighting,  0.20,  0.20,  0.20,  0.20,  0.20,  0.20,  0.20,  0.20,  0.20,  0.20,  0.20,  0.20
! <Environment:Weather Station>,Wind Sensor Height Above Ground {m},Wind Speed Profile Exponent {},Wind Speed Profile Boundary Layer Thickness {m},Air Temperature Sensor Height Above Ground {m},Wind Speed Modifier Coefficient-Internal,Temperature Modifier Coefficient-Internal
Environment:Weather Station,10.000,0.140,270.000,1.500,1.586,9.750E-003
! <Site:Location>, Location Name, Latitude {N+/S- Deg}, Longitude {E+/W- Deg},  Time Zone Number {GMT+/-}, Elevation {m},  Standard Pressure at Elevation {Pa}, Standard RhoAir at Elevation
Site:Location,Ottawa=Macdonald-Cartier Intl AP ON CAN CWEC2016 WMO#=716280,45.32,-75.67,-5.00,114.90,99952,1.1880
! <Building Information>, Building Name,North Axis {deg},Terrain,  Loads Convergence Tolerance Value,Temperature Convergence Tolerance Value,  Solar Distribution,Maximum Number of Warmup Days,Minimum Number of Warmup Days
 Building Information,rectangular,0.000,Suburbs,4.00000E-002,0.40000,FullExterior,25,6
! <Inside Convection Algorithm>, Algorithm {Simple | TARP | CeilingDiffuser | AdaptiveConvectionAlgorithm}
Inside Convection Algorithm,TARP
! <Outside Convection Algorithm>, Algorithm {SimpleCombined | TARP | MoWitt | DOE-2 | AdaptiveConvectionAlgorithm}
Outside Convection Algorithm,TARP
! <Sky Radiance Distribution>, Value {Anisotropic}
Sky Radiance Distribution,Anisotropic
! <Zone Air Solution Algorithm>, Value {ThirdOrderBackwardDifference | AnalyticalSolution | EulerMethod}
 Zone Air Solution Algorithm, ThirdOrderBackwardDifference
! <Zone Air Carbon Dioxide Balance Simulation>, Simulation {Yes/No}, Carbon Dioxide Concentration
 Zone Air Carbon Dioxide Balance Simulation, No,N/A
! <Zone Air Generic Contaminant Balance Simulation>, Simulation {Yes/No}, Generic Contaminant Concentration
 Zone Air Generic Contaminant Balance Simulation, No,N/A
! <Zone Air Mass Flow Balance Simulation>, Enforce Mass Balance, Adjust Zone Mixing, Adjust Zone Infiltration {AddInfiltration | AdjustInfiltration | None}, Infiltration Zones {MixingSourceZonesOnly | AllZones}
 Zone Air Mass Flow Balance Simulation, No,N/A,N/A,N/A
! <HVACSystemRootFindingAlgorithm>, Value {RegulaFalsi | Bisection | BisectionThenRegulaFalsi | RegulaFalsiThenBisection}
 HVACSystemRootFindingAlgorithm, RegulaFalsi
! <Environment:Site Atmospheric Variation>,Wind Speed Profile Exponent {},Wind Speed Profile Boundary Layer Thickness {m},Air Temperature Gradient Coefficient {K/m}
Environment:Site Atmospheric Variation,0.220,370.000,6.500000E-003
! <Surface Geometry>,Starting Corner,Vertex Input Direction,Coordinate System,Daylight Reference Point Coordinate System,Rectangular (Simple) Surface Coordinate System
 Surface Geometry,UpperLeftCorner,Counterclockwise,RelativeCoordinateSystem,RelativeCoordinateSystem,RelativeToZoneOrigin
! <Surface Heat Transfer Algorithm>, Value {CTF - ConductionTransferFunction | EMPD - MoisturePenetrationDepthConductionTransferFunction | CondFD - ConductionFiniteDifference | HAMT - CombinedHeatAndMoistureFiniteElement} - Description,Inside Surface Max Temperature Limit{C}, Surface Convection Coefficient Lower Limit {W/m2-K}, Surface Convection Coefficient Upper Limit {W/m2-K}
Surface Heat Transfer Algorithm, CTF - ConductionTransferFunction,200,0.10,1000.0
! <Shading Summary>, Number of Fixed Detached Shades, Number of Building Detached Shades, Number of Attached Shades
 Shading Summary,0,0,0
! <Zone Summary>, Number of Zones, Number of Zone Surfaces, Number of SubSurfaces
 Zone Summary,22,159,27
! <Zone Information>,Zone Name,North Axis {deg},Origin X-Coordinate {m},Origin Y-Coordinate {m},Origin Z-Coordinate {m},Centroid X-Coordinate {m},Centroid Y-Coordinate {m},Centroid Z-Coordinate {m},Type,Zone Multiplier,Zone List Multiplier,Minimum X {m},Maximum X {m},Minimum Y {m},Maximum Y {m},Minimum Z {m},Maximum Z {m},Ceiling Height {m},Volume {m3},Zone Inside Convection Algorithm {Simple-Detailed-CeilingDiffuser-TrombeWall},Zone Outside Convection Algorithm {Simple-Detailed-Tarp-MoWitt-DOE-2-BLAST}, Floor Area {m2},Exterior Gross Wall Area {m2},Exterior Net Wall Area {m2},Exterior Window Area {m2}, Number of Surfaces, Number of SubSurfaces, Number of Shading SubSurfaces,  Part of Total Building Area
 Zone Information, SP-STORY 1 EAST CORE SPACE SYS-3 FLR-1 SCH-A HPLCMT-CORE ZN,0.0,77.12,36.27,0.00,95.71,64.48,1.60,1,1,1,77.12,111.87,1.52,111.87,0.00,3.20,3.20,10337.95,TARP,TARP,3230.61,0.00,0.00,0.00,6,0,0,Yes
 Zone Information, SP-STORY 1 EAST LEFT PERIMETER SPACE SYS-3 FLR-1 SCH-A HPLCMT-EAST ZN,0.0,36.27,36.27,0.00,37.03,74.83,1.60,1,1,1,36.27,37.80,36.27,113.39,0.00,3.20,3.20,368.49,TARP,TARP,115.15,241.90,153.12,88.78,6,1,0,Yes
 Zone Information, SP-STORY 1 EAST RIGHT PERIMETER SPACE SYS-3 FLR-1 SCH-A HPLCMT-EAST ZN,0.0,111.87,1.52,0.00,112.64,56.69,1.60,1,1,1,111.87,113.39,0.00,113.39,0.00,3.20,3.20,545.31,TARP,TARP,170.41,362.85,229.68,133.16,6,1,0,Yes
 Zone Information, SP-STORY 1 NORTH LEFT PERIMETER SPACE SYS-3 FLR-1 SCH-A HPLCMT-NORTH ZN,0.0,1.52,111.87,0.00,18.90,112.65,1.60,1,1,1,0.00,37.80,111.87,113.39,0.00,3.20,3.20,176.82,TARP,TARP,55.26,120.95,76.56,44.39,6,1,0,Yes
 Zone Information, SP-STORY 1 NORTH LOWER PERIMETER SPACE SYS-3 FLR-1 SCH-A HPLCMT-NORTH ZN,0.0,36.27,36.27,0.00,56.69,37.01,1.60,1,1,1,36.27,77.12,36.27,37.80,0.00,3.20,3.20,191.67,TARP,TARP,59.90,120.95,76.56,44.39,6,1,0,Yes
 Zone Information, SP-STORY 1 NORTH RIGHT PERIMETER SPACE SYS-3 FLR-1 SCH-A HPLCMT-NORTH ZN,0.0,77.12,111.87,0.00,94.49,112.65,1.60,1,1,1,75.59,113.39,111.87,113.39,0.00,3.20,3.20,176.82,TARP,TARP,55.26,120.95,76.56,44.39,6,1,0,Yes
 Zone Information, SP-STORY 1 SOUTH CORE SPACE SYS-3 FLR-1 SCH-A HPLCMT-CORE ZN,0.0,1.52,1.52,0.00,56.69,15.95,1.60,1,1,1,1.52,111.87,1.52,36.27,0.00,3.20,3.20,8405.88,TARP,TARP,2626.84,0.00,0.00,0.00,6,0,0,Yes
 Zone Information, SP-STORY 1 SOUTH LOWER PERIMETER SPACE SYS-3 FLR-1 SCH-A HPLCMT-SOUTH ZN,0.0,0.00,0.00,0.00,56.69,0.75,1.60,1,1,1,0.00,113.39,0.00,1.52,0.00,3.20,3.20,545.31,TARP,TARP,170.41,362.85,229.68,133.16,6,1,0,Yes
 Zone Information, SP-STORY 1 WEST CORE SPACE SYS-3 FLR-1 SCH-A HPLCMT-CORE ZN,0.0,1.52,1.52,0.00,17.68,64.48,1.60,1,1,1,1.52,36.27,1.52,111.87,0.00,3.20,3.20,10337.95,TARP,TARP,3230.61,0.00,0.00,0.00,6,0,0,Yes
 Zone Information, SP-STORY 1 WEST LEFT PERIMETER SPACE SYS-3 FLR-1 SCH-A HPLCMT-WEST ZN,0.0,0.00,0.00,0.00,0.75,56.69,1.60,1,1,1,0.00,1.52,0.00,113.39,0.00,3.20,3.20,545.31,TARP,TARP,170.41,362.85,229.68,133.16,6,1,0,Yes
 Zone Information, SP-STORY 1 WEST RIGHT PERIMETER SPACE SYS-3 FLR-1 SCH-A HPLCMT-WEST ZN,0.0,75.59,37.80,0.00,76.35,74.83,1.60,1,1,1,75.59,77.12,36.27,113.39,0.00,3.20,3.20,368.49,TARP,TARP,115.15,241.90,153.12,88.78,6,1,0,Yes
 Zone Information, SP-STORY 2 EAST CORE SPACE SYS-3 FLR-2 SCH-A HPLCMT-CORE ZN,0.0,77.12,36.27,3.20,95.71,64.48,4.80,1,1,1,77.12,111.87,1.52,111.87,3.20,6.40,3.20,10337.95,TARP,TARP,3230.61,0.00,0.00,64.61,6,1,0,Yes
 Zone Information, SP-STORY 2 EAST LEFT PERIMETER SPACE SYS-3 FLR-2 SCH-A HPLCMT-EAST ZN,0.0,36.27,36.27,3.20,37.03,74.83,4.80,1,1,1,36.27,37.80,36.27,113.39,3.20,6.40,3.20,368.49,TARP,TARP,115.15,241.90,153.12,91.08,6,2,0,Yes
 Zone Information, SP-STORY 2 EAST RIGHT PERIMETER SPACE SYS-3 FLR-2 SCH-A HPLCMT-EAST ZN,0.0,111.87,1.52,3.20,112.64,56.69,4.80,1,1,1,111.87,113.39,0.00,113.39,3.20,6.40,3.20,545.31,TARP,TARP,170.41,362.85,229.68,136.57,6,2,0,Yes
 Zone Information, SP-STORY 2 NORTH LEFT PERIMETER SPACE SYS-3 FLR-2 SCH-A HPLCMT-NORTH ZN,0.0,1.52,111.87,3.20,18.90,112.65,4.80,1,1,1,0.00,37.80,111.87,113.39,3.20,6.40,3.20,176.82,TARP,TARP,55.26,120.95,76.56,45.49,6,2,0,Yes
 Zone Information, SP-STORY 2 NORTH LOWER PERIMETER SPACE SYS-3 FLR-2 SCH-A HPLCMT-NORTH ZN,0.0,36.27,36.27,3.20,56.69,37.01,4.80,1,1,1,36.27,77.12,36.27,37.80,3.20,6.40,3.20,191.67,TARP,TARP,59.90,120.95,76.56,45.59,6,2,0,Yes
 Zone Information, SP-STORY 2 NORTH RIGHT PERIMETER SPACE SYS-3 FLR-2 SCH-A HPLCMT-NORTH ZN,0.0,77.12,111.87,3.20,94.49,112.65,4.80,1,1,1,75.59,113.39,111.87,113.39,3.20,6.40,3.20,176.82,TARP,TARP,55.26,120.95,76.56,45.49,6,2,0,Yes
 Zone Information, SP-STORY 2 SOUTH CORE SPACE SYS-3 FLR-2 SCH-A HPLCMT-CORE ZN,0.0,1.52,1.52,3.20,56.69,15.95,4.80,1,1,1,1.52,111.87,1.52,36.27,3.20,6.40,3.20,8405.88,TARP,TARP,2626.84,0.00,0.00,52.54,6,1,0,Yes
 Zone Information, SP-STORY 2 SOUTH LOWER PERIMETER SPACE SYS-3 FLR-2 SCH-A HPLCMT-SOUTH ZN,0.0,0.00,0.00,3.20,56.69,0.75,4.80,1,1,1,0.00,113.39,0.00,1.52,3.20,6.40,3.20,545.31,TARP,TARP,170.41,362.85,229.68,136.57,6,2,0,Yes
 Zone Information, SP-STORY 2 WEST CORE SPACE SYS-3 FLR-2 SCH-A HPLCMT-CORE ZN,0.0,1.52,1.52,3.20,17.68,64.48,4.80,1,1,1,1.52,36.27,1.52,111.87,3.20,6.40,3.20,10337.95,TARP,TARP,3230.61,0.00,0.00,64.61,6,1,0,Yes
 Zone Information, SP-STORY 2 WEST LEFT PERIMETER SPACE SYS-3 FLR-2 SCH-A HPLCMT-WEST ZN,0.0,0.00,0.00,3.20,0.75,56.69,4.80,1,1,1,0.00,1.52,0.00,113.39,3.20,6.40,3.20,545.31,TARP,TARP,170.41,362.85,229.68,136.57,6,2,0,Yes
 Zone Information, SP-STORY 2 WEST RIGHT PERIMETER SPACE SYS-3 FLR-2 SCH-A HPLCMT-WEST ZN,0.0,75.59,37.80,3.20,76.35,74.83,4.80,1,1,1,75.59,77.12,36.27,113.39,3.20,6.40,3.20,368.49,TARP,TARP,115.15,241.90,153.12,91.08,6,2,0,Yes
! <Zone Internal Gains Nominal>,Zone Name, Floor Area {m2},# Occupants,Area per Occupant {m2/person},Occupant per Area {person/m2},Interior Lighting {W/m2},Electric Load {W/m2},Gas Load {W/m2},Other Load {W/m2},Hot Water Eq {W/m2},Steam Equipment {W/m2},Sum Loads per Area {W/m2},Outdoor Controlled Baseboard Heat
 Zone Internal Gains Nominal, SP-STORY 1 EAST CORE SPACE SYS-3 FLR-1 SCH-A HPLCMT-CORE ZN,3230.61,129.3,24.991,4.001E-002,8.500,7.503,0.000,0.000,0.000,0.000,16.003,No
 Zone Internal Gains Nominal, SP-STORY 1 EAST LEFT PERIMETER SPACE SYS-3 FLR-1 SCH-A HPLCMT-EAST ZN,115.15,4.6,24.991,4.001E-002,8.500,7.503,0.000,0.000,0.000,0.000,16.003,No
 Zone Internal Gains Nominal, SP-STORY 1 EAST RIGHT PERIMETER SPACE SYS-3 FLR-1 SCH-A HPLCMT-EAST ZN,170.41,6.8,24.991,4.001E-002,8.500,7.503,0.000,0.000,0.000,0.000,16.003,No
 Zone Internal Gains Nominal, SP-STORY 1 NORTH LEFT PERIMETER SPACE SYS-3 FLR-1 SCH-A HPLCMT-NORTH ZN,55.26,2.2,24.991,4.001E-002,8.500,7.503,0.000,0.000,0.000,0.000,16.003,No
 Zone Internal Gains Nominal, SP-STORY 1 NORTH LOWER PERIMETER SPACE SYS-3 FLR-1 SCH-A HPLCMT-NORTH ZN,59.90,2.4,24.991,4.001E-002,8.500,7.503,0.000,0.000,0.000,0.000,16.003,No
 Zone Internal Gains Nominal, SP-STORY 1 NORTH RIGHT PERIMETER SPACE SYS-3 FLR-1 SCH-A HPLCMT-NORTH ZN,55.26,2.2,24.991,4.001E-002,8.500,7.503,0.000,0.000,0.000,0.000,16.003,No
 Zone Internal Gains Nominal, SP-STORY 1 SOUTH CORE SPACE SYS-3 FLR-1 SCH-A HPLCMT-CORE ZN,2626.84,105.1,24.991,4.001E-002,8.500,7.503,0.000,0.000,0.000,0.000,16.003,No
 Zone Internal Gains Nominal, SP-STORY 1 SOUTH LOWER PERIMETER SPACE SYS-3 FLR-1 SCH-A HPLCMT-SOUTH ZN,170.41,6.8,24.991,4.001E-002,8.500,7.503,0.000,0.000,0.000,0.000,16.003,No
 Zone Internal Gains Nominal, SP-STORY 1 WEST CORE SPACE SYS-3 FLR-1 SCH-A HPLCMT-CORE ZN,3230.61,129.3,24.991,4.001E-002,8.500,7.503,0.000,0.000,0.000,0.000,16.003,No
 Zone Internal Gains Nominal, SP-STORY 1 WEST LEFT PERIMETER SPACE SYS-3 FLR-1 SCH-A HPLCMT-WEST ZN,170.41,6.8,24.991,4.001E-002,8.500,7.503,0.000,0.000,0.000,0.000,16.003,No
 Zone Internal Gains Nominal, SP-STORY 1 WEST RIGHT PERIMETER SPACE SYS-3 FLR-1 SCH-A HPLCMT-WEST ZN,115.15,4.6,24.991,4.001E-002,8.500,7.503,0.000,0.000,0.000,0.000,16.003,No
 Zone Internal Gains Nominal, SP-STORY 2 EAST CORE SPACE SYS-3 FLR-2 SCH-A HPLCMT-CORE ZN,3230.61,129.3,24.991,4.001E-002,8.500,7.503,0.000,0.000,0.000,0.000,16.003,No
 Zone Internal Gains Nominal, SP-STORY 2 EAST LEFT PERIMETER SPACE SYS-3 FLR-2 SCH-A HPLCMT-EAST ZN,115.15,4.6,24.991,4.001E-002,8.500,7.503,0.000,0.000,0.000,0.000,16.003,No
 Zone Internal Gains Nominal, SP-STORY 2 EAST RIGHT PERIMETER SPACE SYS-3 FLR-2 SCH-A HPLCMT-EAST ZN,170.41,6.8,24.991,4.001E-002,8.500,7.503,0.000,0.000,0.000,0.000,16.003,No
 Zone Internal Gains Nominal, SP-STORY 2 NORTH LEFT PERIMETER SPACE SYS-3 FLR-2 SCH-A HPLCMT-NORTH ZN,55.26,2.2,24.991,4.001E-002,8.500,7.503,0.000,0.000,0.000,0.000,16.003,No
 Zone Internal Gains Nominal, SP-STORY 2 NORTH LOWER PERIMETER SPACE SYS-3 FLR-2 SCH-A HPLCMT-NORTH ZN,59.90,2.4,24.991,4.001E-002,8.500,7.503,0.000,0.000,0.000,0.000,16.003,No
 Zone Internal Gains Nominal, SP-STORY 2 NORTH RIGHT PERIMETER SPACE SYS-3 FLR-2 SCH-A HPLCMT-NORTH ZN,55.26,2.2,24.991,4.001E-002,8.500,7.503,0.000,0.000,0.000,0.000,16.003,No
 Zone Internal Gains Nominal, SP-STORY 2 SOUTH CORE SPACE SYS-3 FLR-2 SCH-A HPLCMT-CORE ZN,2626.84,105.1,24.991,4.001E-002,8.500,7.503,0.000,0.000,0.000,0.000,16.003,No
 Zone Internal Gains Nominal, SP-STORY 2 SOUTH LOWER PERIMETER SPACE SYS-3 FLR-2 SCH-A HPLCMT-SOUTH ZN,170.41,6.8,24.991,4.001E-002,8.500,7.503,0.000,0.000,0.000,0.000,16.003,No
 Zone Internal Gains Nominal, SP-STORY 2 WEST CORE SPACE SYS-3 FLR-2 SCH-A HPLCMT-CORE ZN,3230.61,129.3,24.991,4.001E-002,8.500,7.503,0.000,0.000,0.000,0.000,16.003,No
 Zone Internal Gains Nominal, SP-STORY 2 WEST LEFT PERIMETER SPACE SYS-3 FLR-2 SCH-A HPLCMT-WEST ZN,170.41,6.8,24.991,4.001E-002,8.500,7.503,0.000,0.000,0.000,0.000,16.003,No
 Zone Internal Gains Nominal, SP-STORY 2 WEST RIGHT PERIMETER SPACE SYS-3 FLR-2 SCH-A HPLCMT-WEST ZN,115.15,4.6,24.991,4.001E-002,8.500,7.503,0.000,0.000,0.000,0.000,16.003,No
! <People Internal Gains Nominal>,Name,Schedule Name,Zone Name,Zone Floor Area {m2},# Zone Occupants,Number of People {},People/Floor Area {person/m2},Floor Area per person {m2/person},Fraction Radiant,Fraction Convected,Sensible Fraction Calculation,Activity level,ASHRAE 55 Warnings,Carbon Dioxide Generation Rate,Nominal Minimum Number of People,Nominal Maximum Number of People
 People Internal Gains Nominal, SP-STORY 1 EAST CORE SPACE SYS-3 FLR-1 SCH-A HPLCMT-CORE ZN OFFICE WHOLEBUILDING PEOPLE,NECB-A-OCCUPANCY,SP-STORY 1 EAST CORE SPACE SYS-3 FLR-1 SCH-A HPLCMT-CORE ZN,3230.61,129.3,129.3,4.001E-002,24.991,0.300,0.700,AutoCalculate,NECB-ACTIVITY,No,3.8200E-008,0,116
 People Internal Gains Nominal, SP-STORY 1 EAST LEFT PERIMETER SPACE SYS-3 FLR-1 SCH-A HPLCMT-EAST ZN OFFICE WHOLEBUILDING PEOPLE,NECB-A-OCCUPANCY,SP-STORY 1 EAST LEFT PERIMETER SPACE SYS-3 FLR-1 SCH-A HPLCMT-EAST ZN,115.15,4.6,4.6,4.001E-002,24.991,0.300,0.700,AutoCalculate,NECB-ACTIVITY,No,3.8200E-008,0,4
 People Internal Gains Nominal, SP-STORY 1 EAST RIGHT PERIMETER SPACE SYS-3 FLR-1 SCH-A HPLCMT-EAST ZN OFFICE WHOLEBUILDING PEOPLE,NECB-A-OCCUPANCY,SP-STORY 1 EAST RIGHT PERIMETER SPACE SYS-3 FLR-1 SCH-A HPLCMT-EAST ZN,170.41,6.8,6.8,4.001E-002,24.991,0.300,0.700,AutoCalculate,NECB-ACTIVITY,No,3.8200E-008,0,6
 People Internal Gains Nominal, SP-STORY 1 NORTH LEFT PERIMETER SPACE SYS-3 FLR-1 SCH-A HPLCMT-NORTH ZN OFFICE WHOLEBUILDING PEOPLE,NECB-A-OCCUPANCY,SP-STORY 1 NORTH LEFT PERIMETER SPACE SYS-3 FLR-1 SCH-A HPLCMT-NORTH ZN,55.26,2.2,2.2,4.001E-002,24.991,0.300,0.700,AutoCalculate,NECB-ACTIVITY,No,3.8200E-008,0,2
 People Internal Gains Nominal, SP-STORY 1 NORTH LOWER PERIMETER SPACE SYS-3 FLR-1 SCH-A HPLCMT-NORTH ZN OFFICE WHOLEBUILDING PEOPLE,NECB-A-OCCUPANCY,SP-STORY 1 NORTH LOWER PERIMETER SPACE SYS-3 FLR-1 SCH-A HPLCMT-NORTH ZN,59.90,2.4,2.4,4.001E-002,24.991,0.300,0.700,AutoCalculate,NECB-ACTIVITY,No,3.8200E-008,0,2
 People Internal Gains Nominal, SP-STORY 1 NORTH RIGHT PERIMETER SPACE SYS-3 FLR-1 SCH-A HPLCMT-NORTH ZN OFFICE WHOLEBUILDING PEOPLE,NECB-A-OCCUPANCY,SP-STORY 1 NORTH RIGHT PERIMETER SPACE SYS-3 FLR-1 SCH-A HPLCMT-NORTH ZN,55.26,2.2,2.2,4.001E-002,24.991,0.300,0.700,AutoCalculate,NECB-ACTIVITY,No,3.8200E-008,0,2
 People Internal Gains Nominal, SP-STORY 1 SOUTH CORE SPACE SYS-3 FLR-1 SCH-A HPLCMT-CORE ZN OFFICE WHOLEBUILDING PEOPLE,NECB-A-OCCUPANCY,SP-STORY 1 SOUTH CORE SPACE SYS-3 FLR-1 SCH-A HPLCMT-CORE ZN,2626.84,105.1,105.1,4.001E-002,24.991,0.300,0.700,AutoCalculate,NECB-ACTIVITY,No,3.8200E-008,0,95
 People Internal Gains Nominal, SP-STORY 1 SOUTH LOWER PERIMETER SPACE SYS-3 FLR-1 SCH-A HPLCMT-SOUTH ZN OFFICE WHOLEBUILDING PEOPLE,NECB-A-OCCUPANCY,SP-STORY 1 SOUTH LOWER PERIMETER SPACE SYS-3 FLR-1 SCH-A HPLCMT-SOUTH ZN,170.41,6.8,6.8,4.001E-002,24.991,0.300,0.700,AutoCalculate,NECB-ACTIVITY,No,3.8200E-008,0,6
 People Internal Gains Nominal, SP-STORY 1 WEST CORE SPACE SYS-3 FLR-1 SCH-A HPLCMT-CORE ZN OFFICE WHOLEBUILDING PEOPLE,NECB-A-OCCUPANCY,SP-STORY 1 WEST CORE SPACE SYS-3 FLR-1 SCH-A HPLCMT-CORE ZN,3230.61,129.3,129.3,4.001E-002,24.991,0.300,0.700,AutoCalculate,NECB-ACTIVITY,No,3.8200E-008,0,116
 People Internal Gains Nominal, SP-STORY 1 WEST LEFT PERIMETER SPACE SYS-3 FLR-1 SCH-A HPLCMT-WEST ZN OFFICE WHOLEBUILDING PEOPLE,NECB-A-OCCUPANCY,SP-STORY 1 WEST LEFT PERIMETER SPACE SYS-3 FLR-1 SCH-A HPLCMT-WEST ZN,170.41,6.8,6.8,4.001E-002,24.991,0.300,0.700,AutoCalculate,NECB-ACTIVITY,No,3.8200E-008,0,6
 People Internal Gains Nominal, SP-STORY 1 WEST RIGHT PERIMETER SPACE SYS-3 FLR-1 SCH-A HPLCMT-WEST ZN OFFICE WHOLEBUILDING PEOPLE,NECB-A-OCCUPANCY,SP-STORY 1 WEST RIGHT PERIMETER SPACE SYS-3 FLR-1 SCH-A HPLCMT-WEST ZN,115.15,4.6,4.6,4.001E-002,24.991,0.300,0.700,AutoCalculate,NECB-ACTIVITY,No,3.8200E-008,0,4
 People Internal Gains Nominal, SP-STORY 2 EAST CORE SPACE SYS-3 FLR-2 SCH-A HPLCMT-CORE ZN OFFICE WHOLEBUILDING PEOPLE,NECB-A-OCCUPANCY,SP-STORY 2 EAST CORE SPACE SYS-3 FLR-2 SCH-A HPLCMT-CORE ZN,3230.61,129.3,129.3,4.001E-002,24.991,0.300,0.700,AutoCalculate,NECB-ACTIVITY,No,3.8200E-008,0,116
 People Internal Gains Nominal, SP-STORY 2 EAST LEFT PERIMETER SPACE SYS-3 FLR-2 SCH-A HPLCMT-EAST ZN OFFICE WHOLEBUILDING PEOPLE,NECB-A-OCCUPANCY,SP-STORY 2 EAST LEFT PERIMETER SPACE SYS-3 FLR-2 SCH-A HPLCMT-EAST ZN,115.15,4.6,4.6,4.001E-002,24.991,0.300,0.700,AutoCalculate,NECB-ACTIVITY,No,3.8200E-008,0,4
 People Internal Gains Nominal, SP-STORY 2 EAST RIGHT PERIMETER SPACE SYS-3 FLR-2 SCH-A HPLCMT-EAST ZN OFFICE WHOLEBUILDING PEOPLE,NECB-A-OCCUPANCY,SP-STORY 2 EAST RIGHT PERIMETER SPACE SYS-3 FLR-2 SCH-A HPLCMT-EAST ZN,170.41,6.8,6.8,4.001E-002,24.991,0.300,0.700,AutoCalculate,NECB-ACTIVITY,No,3.8200E-008,0,6
 People Internal Gains Nominal, SP-STORY 2 NORTH LEFT PERIMETER SPACE SYS-3 FLR-2 SCH-A HPLCMT-NORTH ZN OFFICE WHOLEBUILDING PEOPLE,NECB-A-OCCUPANCY,SP-STORY 2 NORTH LEFT PERIMETER SPACE SYS-3 FLR-2 SCH-A HPLCMT-NORTH ZN,55.26,2.2,2.2,4.001E-002,24.991,0.300,0.700,AutoCalculate,NECB-ACTIVITY,No,3.8200E-008,0,2
 People Internal Gains Nominal, SP-STORY 2 NORTH LOWER PERIMETER SPACE SYS-3 FLR-2 SCH-A HPLCMT-NORTH ZN OFFICE WHOLEBUILDING PEOPLE,NECB-A-OCCUPANCY,SP-STORY 2 NORTH LOWER PERIMETER SPACE SYS-3 FLR-2 SCH-A HPLCMT-NORTH ZN,59.90,2.4,2.4,4.001E-002,24.991,0.300,0.700,AutoCalculate,NECB-ACTIVITY,No,3.8200E-008,0,2
 People Internal Gains Nominal, SP-STORY 2 NORTH RIGHT PERIMETER SPACE SYS-3 FLR-2 SCH-A HPLCMT-NORTH ZN OFFICE WHOLEBUILDING PEOPLE,NECB-A-OCCUPANCY,SP-STORY 2 NORTH RIGHT PERIMETER SPACE SYS-3 FLR-2 SCH-A HPLCMT-NORTH ZN,55.26,2.2,2.2,4.001E-002,24.991,0.300,0.700,AutoCalculate,NECB-ACTIVITY,No,3.8200E-008,0,2
 People Internal Gains Nominal, SP-STORY 2 SOUTH CORE SPACE SYS-3 FLR-2 SCH-A HPLCMT-CORE ZN OFFICE WHOLEBUILDING PEOPLE,NECB-A-OCCUPANCY,SP-STORY 2 SOUTH CORE SPACE SYS-3 FLR-2 SCH-A HPLCMT-CORE ZN,2626.84,105.1,105.1,4.001E-002,24.991,0.300,0.700,AutoCalculate,NECB-ACTIVITY,No,3.8200E-008,0,95
 People Internal Gains Nominal, SP-STORY 2 SOUTH LOWER PERIMETER SPACE SYS-3 FLR-2 SCH-A HPLCMT-SOUTH ZN OFFICE WHOLEBUILDING PEOPLE,NECB-A-OCCUPANCY,SP-STORY 2 SOUTH LOWER PERIMETER SPACE SYS-3 FLR-2 SCH-A HPLCMT-SOUTH ZN,170.41,6.8,6.8,4.001E-002,24.991,0.300,0.700,AutoCalculate,NECB-ACTIVITY,No,3.8200E-008,0,6
 People Internal Gains Nominal, SP-STORY 2 WEST CORE SPACE SYS-3 FLR-2 SCH-A HPLCMT-CORE ZN OFFICE WHOLEBUILDING PEOPLE,NECB-A-OCCUPANCY,SP-STORY 2 WEST CORE SPACE SYS-3 FLR-2 SCH-A HPLCMT-CORE ZN,3230.61,129.3,129.3,4.001E-002,24.991,0.300,0.700,AutoCalculate,NECB-ACTIVITY,No,3.8200E-008,0,116
 People Internal Gains Nominal, SP-STORY 2 WEST LEFT PERIMETER SPACE SYS-3 FLR-2 SCH-A HPLCMT-WEST ZN OFFICE WHOLEBUILDING PEOPLE,NECB-A-OCCUPANCY,SP-STORY 2 WEST LEFT PERIMETER SPACE SYS-3 FLR-2 SCH-A HPLCMT-WEST ZN,170.41,6.8,6.8,4.001E-002,24.991,0.300,0.700,AutoCalculate,NECB-ACTIVITY,No,3.8200E-008,0,6
 People Internal Gains Nominal, SP-STORY 2 WEST RIGHT PERIMETER SPACE SYS-3 FLR-2 SCH-A HPLCMT-WEST ZN OFFICE WHOLEBUILDING PEOPLE,NECB-A-OCCUPANCY,SP-STORY 2 WEST RIGHT PERIMETER SPACE SYS-3 FLR-2 SCH-A HPLCMT-WEST ZN,115.15,4.6,4.6,4.001E-002,24.991,0.300,0.700,AutoCalculate,NECB-ACTIVITY,No,3.8200E-008,0,4
! <Lights Internal Gains Nominal>,Name,Schedule Name,Zone Name,Zone Floor Area {m2},# Zone Occupants,Lighting Level {W},Lights/Floor Area {W/m2},Lights per person {W/person},Fraction Return Air,Fraction Radiant,Fraction Short Wave,Fraction Convected,Fraction Replaceable,End-Use Category,Nominal Minimum Lighting Level {W},Nominal Maximum Lighting Level {W}
 Lights Internal Gains Nominal, SP-STORY 1 EAST CORE SPACE SYS-3 FLR-1 SCH-A HPLCMT-CORE ZN OFFICE WHOLEBUILDING LIGHTS,NECB-A-LIGHTING,SP-STORY 1 EAST CORE SPACE SYS-3 FLR-1 SCH-A HPLCMT-CORE ZN,3230.61,129.3,27459.948,8.500,212.421,0.000,0.500,0.200,0.300,1.000,General,1372.997,24713.953
 Lights Internal Gains Nominal, SP-STORY 1 EAST LEFT PERIMETER SPACE SYS-3 FLR-1 SCH-A HPLCMT-EAST ZN OFFICE WHOLEBUILDING LIGHTS,NECB-A-LIGHTING,SP-STORY 1 EAST LEFT PERIMETER SPACE SYS-3 FLR-1 SCH-A HPLCMT-EAST ZN,115.15,4.6,978.794,8.500,212.421,0.000,0.500,0.200,0.300,1.000,General,48.940,880.914
 Lights Internal Gains Nominal, SP-STORY 1 EAST RIGHT PERIMETER SPACE SYS-3 FLR-1 SCH-A HPLCMT-EAST ZN OFFICE WHOLEBUILDING LIGHTS,NECB-A-LIGHTING,SP-STORY 1 EAST RIGHT PERIMETER SPACE SYS-3 FLR-1 SCH-A HPLCMT-EAST ZN,170.41,6.8,1448.466,8.500,212.421,0.000,0.500,0.200,0.300,1.000,General,72.423,1303.619
 Lights Internal Gains Nominal, SP-STORY 1 NORTH LEFT PERIMETER SPACE SYS-3 FLR-1 SCH-A HPLCMT-NORTH ZN OFFICE WHOLEBUILDING LIGHTS,NECB-A-LIGHTING,SP-STORY 1 NORTH LEFT PERIMETER SPACE SYS-3 FLR-1 SCH-A HPLCMT-NORTH ZN,55.26,2.2,469.672,8.500,212.421,0.000,0.500,0.200,0.300,1.000,General,23.484,422.705
 Lights Internal Gains Nominal, SP-STORY 1 NORTH LOWER PERIMETER SPACE SYS-3 FLR-1 SCH-A HPLCMT-NORTH ZN OFFICE WHOLEBUILDING LIGHTS,NECB-A-LIGHTING,SP-STORY 1 NORTH LOWER PERIMETER SPACE SYS-3 FLR-1 SCH-A HPLCMT-NORTH ZN,59.90,2.4,509.121,8.500,212.421,0.000,0.500,0.200,0.300,1.000,General,25.456,458.209
 Lights Internal Gains Nominal, SP-STORY 1 NORTH RIGHT PERIMETER SPACE SYS-3 FLR-1 SCH-A HPLCMT-NORTH ZN OFFICE WHOLEBUILDING LIGHTS,NECB-A-LIGHTING,SP-STORY 1 NORTH RIGHT PERIMETER SPACE SYS-3 FLR-1 SCH-A HPLCMT-NORTH ZN,55.26,2.2,469.672,8.500,212.421,0.000,0.500,0.200,0.300,1.000,General,23.484,422.705
 Lights Internal Gains Nominal, SP-STORY 1 SOUTH CORE SPACE SYS-3 FLR-1 SCH-A HPLCMT-CORE ZN OFFICE WHOLEBUILDING LIGHTS,NECB-A-LIGHTING,SP-STORY 1 SOUTH CORE SPACE SYS-3 FLR-1 SCH-A HPLCMT-CORE ZN,2626.84,105.1,22327.917,8.500,212.421,0.000,0.500,0.200,0.300,1.000,General,1116.396,20095.125
 Lights Internal Gains Nominal, SP-STORY 1 SOUTH LOWER PERIMETER SPACE SYS-3 FLR-1 SCH-A HPLCMT-SOUTH ZN OFFICE WHOLEBUILDING LIGHTS,NECB-A-LIGHTING,SP-STORY 1 SOUTH LOWER PERIMETER SPACE SYS-3 FLR-1 SCH-A HPLCMT-SOUTH ZN,170.41,6.8,1448.466,8.500,212.421,0.000,0.500,0.200,0.300,1.000,General,72.423,1303.619
 Lights Internal Gains Nominal, SP-STORY 1 WEST CORE SPACE SYS-3 FLR-1 SCH-A HPLCMT-CORE ZN OFFICE WHOLEBUILDING LIGHTS,NECB-A-LIGHTING,SP-STORY 1 WEST CORE SPACE SYS-3 FLR-1 SCH-A HPLCMT-CORE ZN,3230.61,129.3,27459.948,8.500,212.421,0.000,0.500,0.200,0.300,1.000,General,1372.997,24713.953
 Lights Internal Gains Nominal, SP-STORY 1 WEST LEFT PERIMETER SPACE SYS-3 FLR-1 SCH-A HPLCMT-WEST ZN OFFICE WHOLEBUILDING LIGHTS,NECB-A-LIGHTING,SP-STORY 1 WEST LEFT PERIMETER SPACE SYS-3 FLR-1 SCH-A HPLCMT-WEST ZN,170.41,6.8,1448.466,8.500,212.421,0.000,0.500,0.200,0.300,1.000,General,72.423,1303.619
 Lights Internal Gains Nominal, SP-STORY 1 WEST RIGHT PERIMETER SPACE SYS-3 FLR-1 SCH-A HPLCMT-WEST ZN OFFICE WHOLEBUILDING LIGHTS,NECB-A-LIGHTING,SP-STORY 1 WEST RIGHT PERIMETER SPACE SYS-3 FLR-1 SCH-A HPLCMT-WEST ZN,115.15,4.6,978.794,8.500,212.421,0.000,0.500,0.200,0.300,1.000,General,48.940,880.914
 Lights Internal Gains Nominal, SP-STORY 2 EAST CORE SPACE SYS-3 FLR-2 SCH-A HPLCMT-CORE ZN OFFICE WHOLEBUILDING LIGHTS,NECB-A-LIGHTING,SP-STORY 2 EAST CORE SPACE SYS-3 FLR-2 SCH-A HPLCMT-CORE ZN,3230.61,129.3,27459.948,8.500,212.421,0.000,0.500,0.200,0.300,1.000,General,1372.997,24713.953
 Lights Internal Gains Nominal, SP-STORY 2 EAST LEFT PERIMETER SPACE SYS-3 FLR-2 SCH-A HPLCMT-EAST ZN OFFICE WHOLEBUILDING LIGHTS,NECB-A-LIGHTING,SP-STORY 2 EAST LEFT PERIMETER SPACE SYS-3 FLR-2 SCH-A HPLCMT-EAST ZN,115.15,4.6,978.794,8.500,212.421,0.000,0.500,0.200,0.300,1.000,General,48.940,880.914
 Lights Internal Gains Nominal, SP-STORY 2 EAST RIGHT PERIMETER SPACE SYS-3 FLR-2 SCH-A HPLCMT-EAST ZN OFFICE WHOLEBUILDING LIGHTS,NECB-A-LIGHTING,SP-STORY 2 EAST RIGHT PERIMETER SPACE SYS-3 FLR-2 SCH-A HPLCMT-EAST ZN,170.41,6.8,1448.466,8.500,212.421,0.000,0.500,0.200,0.300,1.000,General,72.423,1303.619
 Lights Internal Gains Nominal, SP-STORY 2 NORTH LEFT PERIMETER SPACE SYS-3 FLR-2 SCH-A HPLCMT-NORTH ZN OFFICE WHOLEBUILDING LIGHTS,NECB-A-LIGHTING,SP-STORY 2 NORTH LEFT PERIMETER SPACE SYS-3 FLR-2 SCH-A HPLCMT-NORTH ZN,55.26,2.2,469.672,8.500,212.421,0.000,0.500,0.200,0.300,1.000,General,23.484,422.705
 Lights Internal Gains Nominal, SP-STORY 2 NORTH LOWER PERIMETER SPACE SYS-3 FLR-2 SCH-A HPLCMT-NORTH ZN OFFICE WHOLEBUILDING LIGHTS,NECB-A-LIGHTING,SP-STORY 2 NORTH LOWER PERIMETER SPACE SYS-3 FLR-2 SCH-A HPLCMT-NORTH ZN,59.90,2.4,509.121,8.500,212.421,0.000,0.500,0.200,0.300,1.000,General,25.456,458.209
 Lights Internal Gains Nominal, SP-STORY 2 NORTH RIGHT PERIMETER SPACE SYS-3 FLR-2 SCH-A HPLCMT-NORTH ZN OFFICE WHOLEBUILDING LIGHTS,NECB-A-LIGHTING,SP-STORY 2 NORTH RIGHT PERIMETER SPACE SYS-3 FLR-2 SCH-A HPLCMT-NORTH ZN,55.26,2.2,469.672,8.500,212.421,0.000,0.500,0.200,0.300,1.000,General,23.484,422.705
 Lights Internal Gains Nominal, SP-STORY 2 SOUTH CORE SPACE SYS-3 FLR-2 SCH-A HPLCMT-CORE ZN OFFICE WHOLEBUILDING LIGHTS,NECB-A-LIGHTING,SP-STORY 2 SOUTH CORE SPACE SYS-3 FLR-2 SCH-A HPLCMT-CORE ZN,2626.84,105.1,22327.917,8.500,212.421,0.000,0.500,0.200,0.300,1.000,General,1116.396,20095.125
 Lights Internal Gains Nominal, SP-STORY 2 SOUTH LOWER PERIMETER SPACE SYS-3 FLR-2 SCH-A HPLCMT-SOUTH ZN OFFICE WHOLEBUILDING LIGHTS,NECB-A-LIGHTING,SP-STORY 2 SOUTH LOWER PERIMETER SPACE SYS-3 FLR-2 SCH-A HPLCMT-SOUTH ZN,170.41,6.8,1448.466,8.500,212.421,0.000,0.500,0.200,0.300,1.000,General,72.423,1303.619
 Lights Internal Gains Nominal, SP-STORY 2 WEST CORE SPACE SYS-3 FLR-2 SCH-A HPLCMT-CORE ZN OFFICE WHOLEBUILDING LIGHTS,NECB-A-LIGHTING,SP-STORY 2 WEST CORE SPACE SYS-3 FLR-2 SCH-A HPLCMT-CORE ZN,3230.61,129.3,27459.948,8.500,212.421,0.000,0.500,0.200,0.300,1.000,General,1372.997,24713.953
 Lights Internal Gains Nominal, SP-STORY 2 WEST LEFT PERIMETER SPACE SYS-3 FLR-2 SCH-A HPLCMT-WEST ZN OFFICE WHOLEBUILDING LIGHTS,NECB-A-LIGHTING,SP-STORY 2 WEST LEFT PERIMETER SPACE SYS-3 FLR-2 SCH-A HPLCMT-WEST ZN,170.41,6.8,1448.466,8.500,212.421,0.000,0.500,0.200,0.300,1.000,General,72.423,1303.619
 Lights Internal Gains Nominal, SP-STORY 2 WEST RIGHT PERIMETER SPACE SYS-3 FLR-2 SCH-A HPLCMT-WEST ZN OFFICE WHOLEBUILDING LIGHTS,NECB-A-LIGHTING,SP-STORY 2 WEST RIGHT PERIMETER SPACE SYS-3 FLR-2 SCH-A HPLCMT-WEST ZN,115.15,4.6,978.794,8.500,212.421,0.000,0.500,0.200,0.300,1.000,General,48.940,880.914
! <ElectricEquipment Internal Gains Nominal>,Name,Schedule Name,Zone Name,Zone Floor Area {m2},# Zone Occupants,Equipment Level {W},Equipment/Floor Area {W/m2},Equipment per person {W/person},Fraction Latent,Fraction Radiant,Fraction Lost,Fraction Convected,End-Use SubCategory,Nominal Minimum Equipment Level {W},Nominal Maximum Equipment Level {W}
 ElectricEquipment Internal Gains Nominal, SP-STORY 1 EAST CORE SPACE SYS-3 FLR-1 SCH-A HPLCMT-CORE ZN OFFICE WHOLEBUILDING ELEC EQUIP,NECB-A-ELECTRIC-EQUIPMENT,SP-STORY 1 EAST CORE SPACE SYS-3 FLR-1 SCH-A HPLCMT-CORE ZN,3230.61,129.3,24238.382,7.503,187.500,0.000,0.500,0.000,0.500,General,4847.676,21814.543
 ElectricEquipment Internal Gains Nominal, SP-STORY 1 EAST LEFT PERIMETER SPACE SYS-3 FLR-1 SCH-A HPLCMT-EAST ZN OFFICE WHOLEBUILDING ELEC EQUIP,NECB-A-ELECTRIC-EQUIPMENT,SP-STORY 1 EAST LEFT PERIMETER SPACE SYS-3 FLR-1 SCH-A HPLCMT-EAST ZN,115.15,4.6,863.963,7.503,187.500,0.000,0.500,0.000,0.500,General,172.793,777.566
 ElectricEquipment Internal Gains Nominal, SP-STORY 1 EAST RIGHT PERIMETER SPACE SYS-3 FLR-1 SCH-A HPLCMT-EAST ZN OFFICE WHOLEBUILDING ELEC EQUIP,NECB-A-ELECTRIC-EQUIPMENT,SP-STORY 1 EAST RIGHT PERIMETER SPACE SYS-3 FLR-1 SCH-A HPLCMT-EAST ZN,170.41,6.8,1278.534,7.503,187.500,0.000,0.500,0.000,0.500,General,255.707,1150.680
 ElectricEquipment Internal Gains Nominal, SP-STORY 1 NORTH LEFT PERIMETER SPACE SYS-3 FLR-1 SCH-A HPLCMT-NORTH ZN OFFICE WHOLEBUILDING ELEC EQUIP,NECB-A-ELECTRIC-EQUIPMENT,SP-STORY 1 NORTH LEFT PERIMETER SPACE SYS-3 FLR-1 SCH-A HPLCMT-NORTH ZN,55.26,2.2,414.571,7.503,187.500,0.000,0.500,0.000,0.500,General,82.914,373.114
 ElectricEquipment Internal Gains Nominal, SP-STORY 1 NORTH LOWER PERIMETER SPACE SYS-3 FLR-1 SCH-A HPLCMT-NORTH ZN OFFICE WHOLEBUILDING ELEC EQUIP,NECB-A-ELECTRIC-EQUIPMENT,SP-STORY 1 NORTH LOWER PERIMETER SPACE SYS-3 FLR-1 SCH-A HPLCMT-NORTH ZN,59.90,2.4,449.392,7.503,187.500,0.000,0.500,0.000,0.500,General,89.878,404.453
 ElectricEquipment Internal Gains Nominal, SP-STORY 1 NORTH RIGHT PERIMETER SPACE SYS-3 FLR-1 SCH-A HPLCMT-NORTH ZN OFFICE WHOLEBUILDING ELEC EQUIP,NECB-A-ELECTRIC-EQUIPMENT,SP-STORY 1 NORTH RIGHT PERIMETER SPACE SYS-3 FLR-1 SCH-A HPLCMT-NORTH ZN,55.26,2.2,414.571,7.503,187.500,0.000,0.500,0.000,0.500,General,82.914,373.114
 ElectricEquipment Internal Gains Nominal, SP-STORY 1 SOUTH CORE SPACE SYS-3 FLR-1 SCH-A HPLCMT-CORE ZN OFFICE WHOLEBUILDING ELEC EQUIP,NECB-A-ELECTRIC-EQUIPMENT,SP-STORY 1 SOUTH CORE SPACE SYS-3 FLR-1 SCH-A HPLCMT-CORE ZN,2626.84,105.1,19708.434,7.503,187.500,0.000,0.500,0.000,0.500,General,3941.687,17737.590
 ElectricEquipment Internal Gains Nominal, SP-STORY 1 SOUTH LOWER PERIMETER SPACE SYS-3 FLR-1 SCH-A HPLCMT-SOUTH ZN OFFICE WHOLEBUILDING ELEC EQUIP,NECB-A-ELECTRIC-EQUIPMENT,SP-STORY 1 SOUTH LOWER PERIMETER SPACE SYS-3 FLR-1 SCH-A HPLCMT-SOUTH ZN,170.41,6.8,1278.534,7.503,187.500,0.000,0.500,0.000,0.500,General,255.707,1150.680
 ElectricEquipment Internal Gains Nominal, SP-STORY 1 WEST CORE SPACE SYS-3 FLR-1 SCH-A HPLCMT-CORE ZN OFFICE WHOLEBUILDING ELEC EQUIP,NECB-A-ELECTRIC-EQUIPMENT,SP-STORY 1 WEST CORE SPACE SYS-3 FLR-1 SCH-A HPLCMT-CORE ZN,3230.61,129.3,24238.382,7.503,187.500,0.000,0.500,0.000,0.500,General,4847.676,21814.543
 ElectricEquipment Internal Gains Nominal, SP-STORY 1 WEST LEFT PERIMETER SPACE SYS-3 FLR-1 SCH-A HPLCMT-WEST ZN OFFICE WHOLEBUILDING ELEC EQUIP,NECB-A-ELECTRIC-EQUIPMENT,SP-STORY 1 WEST LEFT PERIMETER SPACE SYS-3 FLR-1 SCH-A HPLCMT-WEST ZN,170.41,6.8,1278.534,7.503,187.500,0.000,0.500,0.000,0.500,General,255.707,1150.680
 ElectricEquipment Internal Gains Nominal, SP-STORY 1 WEST RIGHT PERIMETER SPACE SYS-3 FLR-1 SCH-A HPLCMT-WEST ZN OFFICE WHOLEBUILDING ELEC EQUIP,NECB-A-ELECTRIC-EQUIPMENT,SP-STORY 1 WEST RIGHT PERIMETER SPACE SYS-3 FLR-1 SCH-A HPLCMT-WEST ZN,115.15,4.6,863.963,7.503,187.500,0.000,0.500,0.000,0.500,General,172.793,777.566
 ElectricEquipment Internal Gains Nominal, SP-STORY 2 EAST CORE SPACE SYS-3 FLR-2 SCH-A HPLCMT-CORE ZN OFFICE WHOLEBUILDING ELEC EQUIP,NECB-A-ELECTRIC-EQUIPMENT,SP-STORY 2 EAST CORE SPACE SYS-3 FLR-2 SCH-A HPLCMT-CORE ZN,3230.61,129.3,24238.382,7.503,187.500,0.000,0.500,0.000,0.500,General,4847.676,21814.543
 ElectricEquipment Internal Gains Nominal, SP-STORY 2 EAST LEFT PERIMETER SPACE SYS-3 FLR-2 SCH-A HPLCMT-EAST ZN OFFICE WHOLEBUILDING ELEC EQUIP,NECB-A-ELECTRIC-EQUIPMENT,SP-STORY 2 EAST LEFT PERIMETER SPACE SYS-3 FLR-2 SCH-A HPLCMT-EAST ZN,115.15,4.6,863.963,7.503,187.500,0.000,0.500,0.000,0.500,General,172.793,777.566
 ElectricEquipment Internal Gains Nominal, SP-STORY 2 EAST RIGHT PERIMETER SPACE SYS-3 FLR-2 SCH-A HPLCMT-EAST ZN OFFICE WHOLEBUILDING ELEC EQUIP,NECB-A-ELECTRIC-EQUIPMENT,SP-STORY 2 EAST RIGHT PERIMETER SPACE SYS-3 FLR-2 SCH-A HPLCMT-EAST ZN,170.41,6.8,1278.534,7.503,187.500,0.000,0.500,0.000,0.500,General,255.707,1150.680
 ElectricEquipment Internal Gains Nominal, SP-STORY 2 NORTH LEFT PERIMETER SPACE SYS-3 FLR-2 SCH-A HPLCMT-NORTH ZN OFFICE WHOLEBUILDING ELEC EQUIP,NECB-A-ELECTRIC-EQUIPMENT,SP-STORY 2 NORTH LEFT PERIMETER SPACE SYS-3 FLR-2 SCH-A HPLCMT-NORTH ZN,55.26,2.2,414.571,7.503,187.500,0.000,0.500,0.000,0.500,General,82.914,373.114
 ElectricEquipment Internal Gains Nominal, SP-STORY 2 NORTH LOWER PERIMETER SPACE SYS-3 FLR-2 SCH-A HPLCMT-NORTH ZN OFFICE WHOLEBUILDING ELEC EQUIP,NECB-A-ELECTRIC-EQUIPMENT,SP-STORY 2 NORTH LOWER PERIMETER SPACE SYS-3 FLR-2 SCH-A HPLCMT-NORTH ZN,59.90,2.4,449.392,7.503,187.500,0.000,0.500,0.000,0.500,General,89.878,404.453
 ElectricEquipment Internal Gains Nominal, SP-STORY 2 NORTH RIGHT PERIMETER SPACE SYS-3 FLR-2 SCH-A HPLCMT-NORTH ZN OFFICE WHOLEBUILDING ELEC EQUIP,NECB-A-ELECTRIC-EQUIPMENT,SP-STORY 2 NORTH RIGHT PERIMETER SPACE SYS-3 FLR-2 SCH-A HPLCMT-NORTH ZN,55.26,2.2,414.571,7.503,187.500,0.000,0.500,0.000,0.500,General,82.914,373.114
 ElectricEquipment Internal Gains Nominal, SP-STORY 2 SOUTH CORE SPACE SYS-3 FLR-2 SCH-A HPLCMT-CORE ZN OFFICE WHOLEBUILDING ELEC EQUIP,NECB-A-ELECTRIC-EQUIPMENT,SP-STORY 2 SOUTH CORE SPACE SYS-3 FLR-2 SCH-A HPLCMT-CORE ZN,2626.84,105.1,19708.434,7.503,187.500,0.000,0.500,0.000,0.500,General,3941.687,17737.590
 ElectricEquipment Internal Gains Nominal, SP-STORY 2 SOUTH LOWER PERIMETER SPACE SYS-3 FLR-2 SCH-A HPLCMT-SOUTH ZN OFFICE WHOLEBUILDING ELEC EQUIP,NECB-A-ELECTRIC-EQUIPMENT,SP-STORY 2 SOUTH LOWER PERIMETER SPACE SYS-3 FLR-2 SCH-A HPLCMT-SOUTH ZN,170.41,6.8,1278.534,7.503,187.500,0.000,0.500,0.000,0.500,General,255.707,1150.680
 ElectricEquipment Internal Gains Nominal, SP-STORY 2 WEST CORE SPACE SYS-3 FLR-2 SCH-A HPLCMT-CORE ZN OFFICE WHOLEBUILDING ELEC EQUIP,NECB-A-ELECTRIC-EQUIPMENT,SP-STORY 2 WEST CORE SPACE SYS-3 FLR-2 SCH-A HPLCMT-CORE ZN,3230.61,129.3,24238.382,7.503,187.500,0.000,0.500,0.000,0.500,General,4847.676,21814.543
 ElectricEquipment Internal Gains Nominal, SP-STORY 2 WEST LEFT PERIMETER SPACE SYS-3 FLR-2 SCH-A HPLCMT-WEST ZN OFFICE WHOLEBUILDING ELEC EQUIP,NECB-A-ELECTRIC-EQUIPMENT,SP-STORY 2 WEST LEFT PERIMETER SPACE SYS-3 FLR-2 SCH-A HPLCMT-WEST ZN,170.41,6.8,1278.534,7.503,187.500,0.000,0.500,0.000,0.500,General,255.707,1150.680
 ElectricEquipment Internal Gains Nominal, SP-STORY 2 WEST RIGHT PERIMETER SPACE SYS-3 FLR-2 SCH-A HPLCMT-WEST ZN OFFICE WHOLEBUILDING ELEC EQUIP,NECB-A-ELECTRIC-EQUIPMENT,SP-STORY 2 WEST RIGHT PERIMETER SPACE SYS-3 FLR-2 SCH-A HPLCMT-WEST ZN,115.15,4.6,863.963,7.503,187.500,0.000,0.500,0.000,0.500,General,172.793,777.566
! <Shadowing/Sun Position Calculations Annual Simulations>, Calculation Method, Value {days}, Allowable Number Figures in Shadow Overlap {}, Polygon Clipping Algorithm, Sky Diffuse Modeling Algorithm, External Shading Calculation Method, Output External Shading Calculation Results, Disable Self-Shading Within Shading Zone Groups, Disable Self-Shading From Shading Zone Groups to Other Zones
Shadowing/Sun Position Calculations Annual Simulations,AverageOverDaysInFrequency,20,15000,SutherlandHodgman,SimpleSkyDiffuseModeling,InternalCalculation,No,No,No
! <Water Heater Information>,Type,Name,Volume {m3},Maximum Capacity {W},Standard Rated Recovery Efficiency, Standard Rated Energy Factor
! <ZoneInfiltration Airflow Stats Nominal>,Name,Schedule Name,Zone Name, Zone Floor Area {m2}, # Zone Occupants,Design Volume Flow Rate {m3/s},Volume Flow Rate/Floor Area {m3/s/m2},Volume Flow Rate/Exterior Surface Area {m3/s/m2},ACH - Air Changes per Hour,Equation A - Constant Term Coefficient {},Equation B - Temperature Term Coefficient {1/C},Equation C - Velocity Term Coefficient {s/m}, Equation D - Velocity Squared Term Coefficient {s2/m2}
 ZoneInfiltration Airflow Stats Nominal, STORY 1 EAST LEFT PERIMETER SPACE INFILTRATION,ALWAYS ON DISCRETE,SP-STORY 1 EAST LEFT PERIMETER SPACE SYS-3 FLR-1 SCH-A HPLCMT-EAST ZN,115.15,4.6,6.047E-002,5.252E-004,2.500E-004,0.591,0.000,0.000,0.224,0.000
 ZoneInfiltration Airflow Stats Nominal, STORY 1 EAST RIGHT PERIMETER SPACE INFILTRATION,ALWAYS ON DISCRETE,SP-STORY 1 EAST RIGHT PERIMETER SPACE SYS-3 FLR-1 SCH-A HPLCMT-EAST ZN,170.41,6.8,9.071E-002,5.323E-004,2.500E-004,0.599,0.000,0.000,0.224,0.000
 ZoneInfiltration Airflow Stats Nominal, STORY 1 NORTH LEFT PERIMETER SPACE INFILTRATION,ALWAYS ON DISCRETE,SP-STORY 1 NORTH LEFT PERIMETER SPACE SYS-3 FLR-1 SCH-A HPLCMT-NORTH ZN,55.26,2.2,3.024E-002,5.472E-004,2.500E-004,0.616,0.000,0.000,0.224,0.000
 ZoneInfiltration Airflow Stats Nominal, STORY 1 NORTH LOWER PERIMETER SPACE INFILTRATION,ALWAYS ON DISCRETE,SP-STORY 1 NORTH LOWER PERIMETER SPACE SYS-3 FLR-1 SCH-A HPLCMT-NORTH ZN,59.90,2.4,3.024E-002,5.048E-004,2.500E-004,0.568,0.000,0.000,0.224,0.000
 ZoneInfiltration Airflow Stats Nominal, STORY 1 NORTH RIGHT PERIMETER SPACE INFILTRATION,ALWAYS ON DISCRETE,SP-STORY 1 NORTH RIGHT PERIMETER SPACE SYS-3 FLR-1 SCH-A HPLCMT-NORTH ZN,55.26,2.2,3.024E-002,5.472E-004,2.500E-004,0.616,0.000,0.000,0.224,0.000
 ZoneInfiltration Airflow Stats Nominal, STORY 1 SOUTH LOWER PERIMETER SPACE INFILTRATION,ALWAYS ON DISCRETE,SP-STORY 1 SOUTH LOWER PERIMETER SPACE SYS-3 FLR-1 SCH-A HPLCMT-SOUTH ZN,170.41,6.8,9.071E-002,5.323E-004,2.500E-004,0.599,0.000,0.000,0.224,0.000
 ZoneInfiltration Airflow Stats Nominal, STORY 1 WEST LEFT PERIMETER SPACE INFILTRATION,ALWAYS ON DISCRETE,SP-STORY 1 WEST LEFT PERIMETER SPACE SYS-3 FLR-1 SCH-A HPLCMT-WEST ZN,170.41,6.8,9.071E-002,5.323E-004,2.500E-004,0.599,0.000,0.000,0.224,0.000
 ZoneInfiltration Airflow Stats Nominal, STORY 1 WEST RIGHT PERIMETER SPACE INFILTRATION,ALWAYS ON DISCRETE,SP-STORY 1 WEST RIGHT PERIMETER SPACE SYS-3 FLR-1 SCH-A HPLCMT-WEST ZN,115.15,4.6,6.047E-002,5.252E-004,2.500E-004,0.591,0.000,0.000,0.224,0.000
 ZoneInfiltration Airflow Stats Nominal, STORY 2 EAST CORE SPACE INFILTRATION,ALWAYS ON DISCRETE,SP-STORY 2 EAST CORE SPACE SYS-3 FLR-2 SCH-A HPLCMT-CORE ZN,3230.61,129.3,0.808,2.500E-004,2.500E-004,0.281,0.000,0.000,0.224,0.000
 ZoneInfiltration Airflow Stats Nominal, STORY 2 EAST LEFT PERIMETER SPACE INFILTRATION,ALWAYS ON DISCRETE,SP-STORY 2 EAST LEFT PERIMETER SPACE SYS-3 FLR-2 SCH-A HPLCMT-EAST ZN,115.15,4.6,8.926E-002,7.752E-004,2.500E-004,0.872,0.000,0.000,0.224,0.000
 ZoneInfiltration Airflow Stats Nominal, STORY 2 EAST RIGHT PERIMETER SPACE INFILTRATION,ALWAYS ON DISCRETE,SP-STORY 2 EAST RIGHT PERIMETER SPACE SYS-3 FLR-2 SCH-A HPLCMT-EAST ZN,170.41,6.8,0.133,7.823E-004,2.500E-004,0.880,0.000,0.000,0.224,0.000
 ZoneInfiltration Airflow Stats Nominal, STORY 2 NORTH LEFT PERIMETER SPACE INFILTRATION,ALWAYS ON DISCRETE,SP-STORY 2 NORTH LEFT PERIMETER SPACE SYS-3 FLR-2 SCH-A HPLCMT-NORTH ZN,55.26,2.2,4.405E-002,7.972E-004,2.500E-004,0.897,0.000,0.000,0.224,0.000
 ZoneInfiltration Airflow Stats Nominal, STORY 2 NORTH LOWER PERIMETER SPACE INFILTRATION,ALWAYS ON DISCRETE,SP-STORY 2 NORTH LOWER PERIMETER SPACE SYS-3 FLR-2 SCH-A HPLCMT-NORTH ZN,59.90,2.4,4.521E-002,7.548E-004,2.500E-004,0.849,0.000,0.000,0.224,0.000
 ZoneInfiltration Airflow Stats Nominal, STORY 2 NORTH RIGHT PERIMETER SPACE INFILTRATION,ALWAYS ON DISCRETE,SP-STORY 2 NORTH RIGHT PERIMETER SPACE SYS-3 FLR-2 SCH-A HPLCMT-NORTH ZN,55.26,2.2,4.405E-002,7.972E-004,2.500E-004,0.897,0.000,0.000,0.224,0.000
 ZoneInfiltration Airflow Stats Nominal, STORY 2 SOUTH CORE SPACE INFILTRATION,ALWAYS ON DISCRETE,SP-STORY 2 SOUTH CORE SPACE SYS-3 FLR-2 SCH-A HPLCMT-CORE ZN,2626.84,105.1,0.657,2.500E-004,2.500E-004,0.281,0.000,0.000,0.224,0.000
 ZoneInfiltration Airflow Stats Nominal, STORY 2 SOUTH LOWER PERIMETER SPACE INFILTRATION,ALWAYS ON DISCRETE,SP-STORY 2 SOUTH LOWER PERIMETER SPACE SYS-3 FLR-2 SCH-A HPLCMT-SOUTH ZN,170.41,6.8,0.133,7.823E-004,2.500E-004,0.880,0.000,0.000,0.224,0.000
 ZoneInfiltration Airflow Stats Nominal, STORY 2 WEST CORE SPACE INFILTRATION,ALWAYS ON DISCRETE,SP-STORY 2 WEST CORE SPACE SYS-3 FLR-2 SCH-A HPLCMT-CORE ZN,3230.61,129.3,0.808,2.500E-004,2.500E-004,0.281,0.000,0.000,0.224,0.000
 ZoneInfiltration Airflow Stats Nominal, STORY 2 WEST LEFT PERIMETER SPACE INFILTRATION,ALWAYS ON DISCRETE,SP-STORY 2 WEST LEFT PERIMETER SPACE SYS-3 FLR-2 SCH-A HPLCMT-WEST ZN,170.41,6.8,0.133,7.823E-004,2.500E-004,0.880,0.000,0.000,0.224,0.000
 ZoneInfiltration Airflow Stats Nominal, STORY 2 WEST RIGHT PERIMETER SPACE INFILTRATION,ALWAYS ON DISCRETE,SP-STORY 2 WEST RIGHT PERIMETER SPACE SYS-3 FLR-2 SCH-A HPLCMT-WEST ZN,115.15,4.6,8.926E-002,7.752E-004,2.500E-004,0.872,0.000,0.000,0.224,0.000
! <AirFlow Model>, Simple
 AirFlow Model, Simple
! <RoomAir Model>, Zone Name, Mixing/Mundt/UCSDDV/UCSDCV/UCSDUFI/UCSDUFE/User Defined
RoomAir Model,SP-STORY 1 EAST CORE SPACE SYS-3 FLR-1 SCH-A HPLCMT-CORE ZN,Mixing/Well-Stirred
RoomAir Model,SP-STORY 1 EAST LEFT PERIMETER SPACE SYS-3 FLR-1 SCH-A HPLCMT-EAST ZN,Mixing/Well-Stirred
RoomAir Model,SP-STORY 1 EAST RIGHT PERIMETER SPACE SYS-3 FLR-1 SCH-A HPLCMT-EAST ZN,Mixing/Well-Stirred
RoomAir Model,SP-STORY 1 NORTH LEFT PERIMETER SPACE SYS-3 FLR-1 SCH-A HPLCMT-NORTH ZN,Mixing/Well-Stirred
RoomAir Model,SP-STORY 1 NORTH LOWER PERIMETER SPACE SYS-3 FLR-1 SCH-A HPLCMT-NORTH ZN,Mixing/Well-Stirred
RoomAir Model,SP-STORY 1 NORTH RIGHT PERIMETER SPACE SYS-3 FLR-1 SCH-A HPLCMT-NORTH ZN,Mixing/Well-Stirred
RoomAir Model,SP-STORY 1 SOUTH CORE SPACE SYS-3 FLR-1 SCH-A HPLCMT-CORE ZN,Mixing/Well-Stirred
RoomAir Model,SP-STORY 1 SOUTH LOWER PERIMETER SPACE SYS-3 FLR-1 SCH-A HPLCMT-SOUTH ZN,Mixing/Well-Stirred
RoomAir Model,SP-STORY 1 WEST CORE SPACE SYS-3 FLR-1 SCH-A HPLCMT-CORE ZN,Mixing/Well-Stirred
RoomAir Model,SP-STORY 1 WEST LEFT PERIMETER SPACE SYS-3 FLR-1 SCH-A HPLCMT-WEST ZN,Mixing/Well-Stirred
RoomAir Model,SP-STORY 1 WEST RIGHT PERIMETER SPACE SYS-3 FLR-1 SCH-A HPLCMT-WEST ZN,Mixing/Well-Stirred
RoomAir Model,SP-STORY 2 EAST CORE SPACE SYS-3 FLR-2 SCH-A HPLCMT-CORE ZN,Mixing/Well-Stirred
RoomAir Model,SP-STORY 2 EAST LEFT PERIMETER SPACE SYS-3 FLR-2 SCH-A HPLCMT-EAST ZN,Mixing/Well-Stirred
RoomAir Model,SP-STORY 2 EAST RIGHT PERIMETER SPACE SYS-3 FLR-2 SCH-A HPLCMT-EAST ZN,Mixing/Well-Stirred
RoomAir Model,SP-STORY 2 NORTH LEFT PERIMETER SPACE SYS-3 FLR-2 SCH-A HPLCMT-NORTH ZN,Mixing/Well-Stirred
RoomAir Model,SP-STORY 2 NORTH LOWER PERIMETER SPACE SYS-3 FLR-2 SCH-A HPLCMT-NORTH ZN,Mixing/Well-Stirred
RoomAir Model,SP-STORY 2 NORTH RIGHT PERIMETER SPACE SYS-3 FLR-2 SCH-A HPLCMT-NORTH ZN,Mixing/Well-Stirred
RoomAir Model,SP-STORY 2 SOUTH CORE SPACE SYS-3 FLR-2 SCH-A HPLCMT-CORE ZN,Mixing/Well-Stirred
RoomAir Model,SP-STORY 2 SOUTH LOWER PERIMETER SPACE SYS-3 FLR-2 SCH-A HPLCMT-SOUTH ZN,Mixing/Well-Stirred
RoomAir Model,SP-STORY 2 WEST CORE SPACE SYS-3 FLR-2 SCH-A HPLCMT-CORE ZN,Mixing/Well-Stirred
RoomAir Model,SP-STORY 2 WEST LEFT PERIMETER SPACE SYS-3 FLR-2 SCH-A HPLCMT-WEST ZN,Mixing/Well-Stirred
RoomAir Model,SP-STORY 2 WEST RIGHT PERIMETER SPACE SYS-3 FLR-2 SCH-A HPLCMT-WEST ZN,Mixing/Well-Stirred
! <AirflowNetwork Model:Control>, No Multizone or Distribution/Multizone with Distribution/Multizone without Distribution/Multizone with Distribution only during Fan Operation
AirflowNetwork Model:Control,NoMultizoneOrDistribution
! <Zone Volume Capacitance Multiplier>, Sensible Heat Capacity Multiplier, Moisture Capacity Multiplier, Carbon Dioxide Capacity Multiplier, Generic Contaminant Capacity Multiplier
Zone Volume Capacitance Multiplier,   1.000 ,   1.000,   1.000,   1.000
! <Load Timesteps in Zone Design Calculation Averaging Window>, Value
 Load Timesteps in Zone Design Calculation Averaging Window,    6
! <Heating Sizing Factor Information>, Sizing Factor ID, Value
 Heating Sizing Factor Information, Global,   1.3000    
 Heating Sizing Factor Information, Zone SP-STORY 1 EAST CORE SPACE SYS-3 FLR-1 SCH-A HPLCMT-CORE ZN,   1.3000    
 Heating Sizing Factor Information, Zone SP-STORY 1 EAST LEFT PERIMETER SPACE SYS-3 FLR-1 SCH-A HPLCMT-EAST ZN,   1.3000    
 Heating Sizing Factor Information, Zone SP-STORY 1 EAST RIGHT PERIMETER SPACE SYS-3 FLR-1 SCH-A HPLCMT-EAST ZN,   1.3000    
 Heating Sizing Factor Information, Zone SP-STORY 1 NORTH LEFT PERIMETER SPACE SYS-3 FLR-1 SCH-A HPLCMT-NORTH ZN,   1.3000    
 Heating Sizing Factor Information, Zone SP-STORY 1 NORTH LOWER PERIMETER SPACE SYS-3 FLR-1 SCH-A HPLCMT-NORTH ZN,   1.3000    
 Heating Sizing Factor Information, Zone SP-STORY 1 NORTH RIGHT PERIMETER SPACE SYS-3 FLR-1 SCH-A HPLCMT-NORTH ZN,   1.3000    
 Heating Sizing Factor Information, Zone SP-STORY 1 SOUTH CORE SPACE SYS-3 FLR-1 SCH-A HPLCMT-CORE ZN,   1.3000    
 Heating Sizing Factor Information, Zone SP-STORY 1 SOUTH LOWER PERIMETER SPACE SYS-3 FLR-1 SCH-A HPLCMT-SOUTH ZN,   1.3000    
 Heating Sizing Factor Information, Zone SP-STORY 1 WEST CORE SPACE SYS-3 FLR-1 SCH-A HPLCMT-CORE ZN,   1.3000    
 Heating Sizing Factor Information, Zone SP-STORY 1 WEST LEFT PERIMETER SPACE SYS-3 FLR-1 SCH-A HPLCMT-WEST ZN,   1.3000    
 Heating Sizing Factor Information, Zone SP-STORY 1 WEST RIGHT PERIMETER SPACE SYS-3 FLR-1 SCH-A HPLCMT-WEST ZN,   1.3000    
 Heating Sizing Factor Information, Zone SP-STORY 2 EAST CORE SPACE SYS-3 FLR-2 SCH-A HPLCMT-CORE ZN,   1.3000    
 Heating Sizing Factor Information, Zone SP-STORY 2 EAST LEFT PERIMETER SPACE SYS-3 FLR-2 SCH-A HPLCMT-EAST ZN,   1.3000    
 Heating Sizing Factor Information, Zone SP-STORY 2 EAST RIGHT PERIMETER SPACE SYS-3 FLR-2 SCH-A HPLCMT-EAST ZN,   1.3000    
 Heating Sizing Factor Information, Zone SP-STORY 2 NORTH LEFT PERIMETER SPACE SYS-3 FLR-2 SCH-A HPLCMT-NORTH ZN,   1.3000    
 Heating Sizing Factor Information, Zone SP-STORY 2 NORTH LOWER PERIMETER SPACE SYS-3 FLR-2 SCH-A HPLCMT-NORTH ZN,   1.3000    
 Heating Sizing Factor Information, Zone SP-STORY 2 NORTH RIGHT PERIMETER SPACE SYS-3 FLR-2 SCH-A HPLCMT-NORTH ZN,   1.3000    
 Heating Sizing Factor Information, Zone SP-STORY 2 SOUTH CORE SPACE SYS-3 FLR-2 SCH-A HPLCMT-CORE ZN,   1.3000    
 Heating Sizing Factor Information, Zone SP-STORY 2 SOUTH LOWER PERIMETER SPACE SYS-3 FLR-2 SCH-A HPLCMT-SOUTH ZN,   1.3000    
 Heating Sizing Factor Information, Zone SP-STORY 2 WEST CORE SPACE SYS-3 FLR-2 SCH-A HPLCMT-CORE ZN,   1.3000    
 Heating Sizing Factor Information, Zone SP-STORY 2 WEST LEFT PERIMETER SPACE SYS-3 FLR-2 SCH-A HPLCMT-WEST ZN,   1.3000    
 Heating Sizing Factor Information, Zone SP-STORY 2 WEST RIGHT PERIMETER SPACE SYS-3 FLR-2 SCH-A HPLCMT-WEST ZN,   1.3000    
! <Cooling Sizing Factor Information>, Sizing Factor ID, Value
 Cooling Sizing Factor Information, Global,   1.1000    
 Cooling Sizing Factor Information, Zone SP-STORY 1 EAST CORE SPACE SYS-3 FLR-1 SCH-A HPLCMT-CORE ZN,   1.1000    
 Cooling Sizing Factor Information, Zone SP-STORY 1 EAST LEFT PERIMETER SPACE SYS-3 FLR-1 SCH-A HPLCMT-EAST ZN,   1.1000    
 Cooling Sizing Factor Information, Zone SP-STORY 1 EAST RIGHT PERIMETER SPACE SYS-3 FLR-1 SCH-A HPLCMT-EAST ZN,   1.1000    
 Cooling Sizing Factor Information, Zone SP-STORY 1 NORTH LEFT PERIMETER SPACE SYS-3 FLR-1 SCH-A HPLCMT-NORTH ZN,   1.1000    
 Cooling Sizing Factor Information, Zone SP-STORY 1 NORTH LOWER PERIMETER SPACE SYS-3 FLR-1 SCH-A HPLCMT-NORTH ZN,   1.1000    
 Cooling Sizing Factor Information, Zone SP-STORY 1 NORTH RIGHT PERIMETER SPACE SYS-3 FLR-1 SCH-A HPLCMT-NORTH ZN,   1.1000    
 Cooling Sizing Factor Information, Zone SP-STORY 1 SOUTH CORE SPACE SYS-3 FLR-1 SCH-A HPLCMT-CORE ZN,   1.1000    
 Cooling Sizing Factor Information, Zone SP-STORY 1 SOUTH LOWER PERIMETER SPACE SYS-3 FLR-1 SCH-A HPLCMT-SOUTH ZN,   1.1000    
 Cooling Sizing Factor Information, Zone SP-STORY 1 WEST CORE SPACE SYS-3 FLR-1 SCH-A HPLCMT-CORE ZN,   1.1000    
 Cooling Sizing Factor Information, Zone SP-STORY 1 WEST LEFT PERIMETER SPACE SYS-3 FLR-1 SCH-A HPLCMT-WEST ZN,   1.1000    
 Cooling Sizing Factor Information, Zone SP-STORY 1 WEST RIGHT PERIMETER SPACE SYS-3 FLR-1 SCH-A HPLCMT-WEST ZN,   1.1000    
 Cooling Sizing Factor Information, Zone SP-STORY 2 EAST CORE SPACE SYS-3 FLR-2 SCH-A HPLCMT-CORE ZN,   1.1000    
 Cooling Sizing Factor Information, Zone SP-STORY 2 EAST LEFT PERIMETER SPACE SYS-3 FLR-2 SCH-A HPLCMT-EAST ZN,   1.1000    
 Cooling Sizing Factor Information, Zone SP-STORY 2 EAST RIGHT PERIMETER SPACE SYS-3 FLR-2 SCH-A HPLCMT-EAST ZN,   1.1000    
 Cooling Sizing Factor Information, Zone SP-STORY 2 NORTH LEFT PERIMETER SPACE SYS-3 FLR-2 SCH-A HPLCMT-NORTH ZN,   1.1000    
 Cooling Sizing Factor Information, Zone SP-STORY 2 NORTH LOWER PERIMETER SPACE SYS-3 FLR-2 SCH-A HPLCMT-NORTH ZN,   1.1000    
 Cooling Sizing Factor Information, Zone SP-STORY 2 NORTH RIGHT PERIMETER SPACE SYS-3 FLR-2 SCH-A HPLCMT-NORTH ZN,   1.1000    
 Cooling Sizing Factor Information, Zone SP-STORY 2 SOUTH CORE SPACE SYS-3 FLR-2 SCH-A HPLCMT-CORE ZN,   1.1000    
 Cooling Sizing Factor Information, Zone SP-STORY 2 SOUTH LOWER PERIMETER SPACE SYS-3 FLR-2 SCH-A HPLCMT-SOUTH ZN,   1.1000    
 Cooling Sizing Factor Information, Zone SP-STORY 2 WEST CORE SPACE SYS-3 FLR-2 SCH-A HPLCMT-CORE ZN,   1.1000    
 Cooling Sizing Factor Information, Zone SP-STORY 2 WEST LEFT PERIMETER SPACE SYS-3 FLR-2 SCH-A HPLCMT-WEST ZN,   1.1000    
 Cooling Sizing Factor Information, Zone SP-STORY 2 WEST RIGHT PERIMETER SPACE SYS-3 FLR-2 SCH-A HPLCMT-WEST ZN,   1.1000    
! <Zone Sizing Information>, Zone Name, Load Type, Calc Des Load {W}, User Des Load {W}, Calc Des Air Flow Rate {m3/s}, User Des Air Flow Rate {m3/s}, Design Day Name, Date/Time of Peak, Temperature at Peak {C}, Humidity Ratio at Peak {kgWater/kgDryAir}, Floor Area {m2}, # Occupants, Calc Outdoor Air Flow Rate {m3/s}, Calc DOAS Heat Addition Rate {W}
 Zone Sizing Information, SP-STORY 1 EAST CORE SPACE SYS-3 FLR-1 SCH-A HPLCMT-CORE ZN, Cooling, 48006.75517, 52807.43069, 3.59971, 3.95969, OTTAWA=MACDONALD-CARTIER INTL ANN CLG .4% CONDNS DB=>MWB, 7/21 17:00:00, 29.18600, 1.30168E-002, 3230.61013, 129.27137, 1.29651, 0.00000
 Zone Sizing Information, SP-STORY 1 EAST CORE SPACE SYS-3 FLR-1 SCH-A HPLCMT-CORE ZN, Heating, 22166.35708, 28816.26421, 0.84464, 1.29651, OTTAWA=MACDONALD-CARTIER INTL ANN HTG 99.6% CONDNS DB, 1/21 08:00:00, -24.20000, 4.26780E-004, 3230.61013, 129.27137, 1.29651, 0.00000
 Zone Sizing Information, SP-STORY 1 EAST LEFT PERIMETER SPACE SYS-3 FLR-1 SCH-A HPLCMT-EAST ZN, Cooling, 23792.04102, 26171.24512, 1.78401, 1.96241, OTTAWA=MACDONALD-CARTIER INTL ANN CLG .4% CONDNS DB=>MWB, 7/21 08:50:00, 24.72517, 1.30168E-002, 115.15318, 4.60780, 4.62133E-002, 0.00000
 Zone Sizing Information, SP-STORY 1 EAST LEFT PERIMETER SPACE SYS-3 FLR-1 SCH-A HPLCMT-EAST ZN, Heating, 10458.10549, 13595.53713, 0.40845, 0.53099, OTTAWA=MACDONALD-CARTIER INTL ANN HTG 99.6% CONDNS DB, 1/21 08:00:00, -24.20000, 4.26780E-004, 115.15318, 4.60780, 4.62133E-002, 0.00000
 Zone Sizing Information, SP-STORY 1 EAST RIGHT PERIMETER SPACE SYS-3 FLR-1 SCH-A HPLCMT-EAST ZN, Cooling, 36611.14428, 40272.25870, 2.74525, 3.01977, OTTAWA=MACDONALD-CARTIER INTL ANN CLG .4% CONDNS DB=>MWB, 7/21 09:00:00, 25.04500, 1.30168E-002, 170.40922, 6.81885, 6.83886E-002, 0.00000
 Zone Sizing Information, SP-STORY 1 EAST RIGHT PERIMETER SPACE SYS-3 FLR-1 SCH-A HPLCMT-EAST ZN, Heating, 15705.79497, 20417.53346, 0.61344, 0.79747, OTTAWA=MACDONALD-CARTIER INTL ANN HTG 99.6% CONDNS DB, 1/21 08:00:00, -24.20000, 4.26780E-004, 170.40922, 6.81885, 6.83886E-002, 0.00000
 Zone Sizing Information, SP-STORY 1 NORTH LEFT PERIMETER SPACE SYS-3 FLR-1 SCH-A HPLCMT-NORTH ZN, Cooling, 2728.71587, 3001.58745, 0.20462, 0.22508, OTTAWA=MACDONALD-CARTIER INTL ANN CLG .4% CONDNS DB=>MWB, 7/21 15:00:00, 30.60000, 1.30168E-002, 55.25604, 2.21104, 2.21754E-002, 0.00000
 Zone Sizing Information, SP-STORY 1 NORTH LEFT PERIMETER SPACE SYS-3 FLR-1 SCH-A HPLCMT-NORTH ZN, Heating, 5369.54448, 6980.40782, 0.20976, 0.27269, OTTAWA=MACDONALD-CARTIER INTL ANN HTG 99.6% CONDNS DB, 1/21 08:00:00, -24.20000, 4.26780E-004, 55.25604, 2.21104, 2.21754E-002, 0.00000
 Zone Sizing Information, SP-STORY 1 NORTH LOWER PERIMETER SPACE SYS-3 FLR-1 SCH-A HPLCMT-NORTH ZN, Cooling, 2590.67791, 2849.74570, 0.19427, 0.21369, OTTAWA=MACDONALD-CARTIER INTL ANN CLG .4% CONDNS DB=>MWB, 7/21 15:00:00, 30.60000, 1.30168E-002, 59.89713, 2.39676, 2.40379E-002, 0.00000
 Zone Sizing Information, SP-STORY 1 NORTH LOWER PERIMETER SPACE SYS-3 FLR-1 SCH-A HPLCMT-NORTH ZN, Heating, 5294.07577, 6882.29850, 0.20675, 0.26877, OTTAWA=MACDONALD-CARTIER INTL ANN HTG 99.6% CONDNS DB, 1/21 08:00:00, -24.20000, 4.26780E-004, 59.89713, 2.39676, 2.40379E-002, 0.00000
 Zone Sizing Information, SP-STORY 1 NORTH RIGHT PERIMETER SPACE SYS-3 FLR-1 SCH-A HPLCMT-NORTH ZN, Cooling, 2729.41335, 3002.35469, 0.20467, 0.22514, OTTAWA=MACDONALD-CARTIER INTL ANN CLG .4% CONDNS DB=>MWB, 7/21 15:00:00, 30.60000, 1.30168E-002, 55.25604, 2.21104, 2.21754E-002, 0.00000
 Zone Sizing Information, SP-STORY 1 NORTH RIGHT PERIMETER SPACE SYS-3 FLR-1 SCH-A HPLCMT-NORTH ZN, Heating, 5368.82053, 6979.46669, 0.20973, 0.27265, OTTAWA=MACDONALD-CARTIER INTL ANN HTG 99.6% CONDNS DB, 1/21 08:00:00, -24.20000, 4.26780E-004, 55.25604, 2.21104, 2.21754E-002, 0.00000
 Zone Sizing Information, SP-STORY 1 SOUTH CORE SPACE SYS-3 FLR-1 SCH-A HPLCMT-CORE ZN, Cooling, 36229.16435, 39852.08078, 2.71659, 2.98824, OTTAWA=MACDONALD-CARTIER INTL ANN CLG .4% CONDNS DB=>MWB, 7/21 17:00:00, 29.18600, 1.30168E-002, 2626.83650, 105.11165, 1.05420, 0.00000
 Zone Sizing Information, SP-STORY 1 SOUTH CORE SPACE SYS-3 FLR-1 SCH-A HPLCMT-CORE ZN, Heating, 15734.37193, 20454.68351, 0.60115, 1.05420, OTTAWA=MACDONALD-CARTIER INTL ANN HTG 99.6% CONDNS DB, 1/21 08:00:00, -24.20000, 4.26780E-004, 2626.83650, 105.11165, 1.05420, 0.00000
 Zone Sizing Information, SP-STORY 1 SOUTH LOWER PERIMETER SPACE SYS-3 FLR-1 SCH-A HPLCMT-SOUTH ZN, Cooling, 17971.36670, 19768.50336, 1.34760, 1.48236, OTTAWA=MACDONALD-CARTIER INTL ANN CLG .4% CONDNS DB=>MWB, 7/21 13:00:00, 30.09500, 1.30168E-002, 170.40922, 6.81885, 6.83886E-002, 0.00000
 Zone Sizing Information, SP-STORY 1 SOUTH LOWER PERIMETER SPACE SYS-3 FLR-1 SCH-A HPLCMT-SOUTH ZN, Heating, 15601.81420, 20282.35846, 0.60936, 0.79217, OTTAWA=MACDONALD-CARTIER INTL ANN HTG 99.6% CONDNS DB, 1/21 08:00:00, -24.20000, 4.26780E-004, 170.40922, 6.81885, 6.83886E-002, 0.00000
 Zone Sizing Information, SP-STORY 1 WEST CORE SPACE SYS-3 FLR-1 SCH-A HPLCMT-CORE ZN, Cooling, 48966.30732, 53862.93806, 3.67167, 4.03883, OTTAWA=MACDONALD-CARTIER INTL ANN CLG .4% CONDNS DB=>MWB, 7/21 17:00:00, 29.18600, 1.30168E-002, 3230.61013, 129.27137, 1.29651, 0.00000
 Zone Sizing Information, SP-STORY 1 WEST CORE SPACE SYS-3 FLR-1 SCH-A HPLCMT-CORE ZN, Heating, 22233.17478, 28903.12721, 0.84715, 1.29651, OTTAWA=MACDONALD-CARTIER INTL ANN HTG 99.6% CONDNS DB, 1/21 08:00:00, -24.20000, 4.26780E-004, 3230.61013, 129.27137, 1.29651, 0.00000
 Zone Sizing Information, SP-STORY 1 WEST LEFT PERIMETER SPACE SYS-3 FLR-1 SCH-A HPLCMT-WEST ZN, Cooling, 39980.90589, 43978.99648, 2.99801, 3.29781, OTTAWA=MACDONALD-CARTIER INTL ANN CLG .4% CONDNS DB=>MWB, 7/21 17:20:00, 28.84933, 1.30168E-002, 170.40922, 6.81885, 6.83886E-002, 0.00000
 Zone Sizing Information, SP-STORY 1 WEST LEFT PERIMETER SPACE SYS-3 FLR-1 SCH-A HPLCMT-WEST ZN, Heating, 15901.32578, 20671.72352, 0.62110, 0.80743, OTTAWA=MACDONALD-CARTIER INTL ANN HTG 99.6% CONDNS DB, 1/21 08:00:00, -24.20000, 4.26780E-004, 170.40922, 6.81885, 6.83886E-002, 0.00000
 Zone Sizing Information, SP-STORY 1 WEST RIGHT PERIMETER SPACE SYS-3 FLR-1 SCH-A HPLCMT-WEST ZN, Cooling, 26328.05266, 28960.85792, 1.97423, 2.17166, OTTAWA=MACDONALD-CARTIER INTL ANN CLG .4% CONDNS DB=>MWB, 7/21 17:20:00, 28.84933, 1.30168E-002, 115.15318, 4.60780, 4.62133E-002, 0.00000
 Zone Sizing Information, SP-STORY 1 WEST RIGHT PERIMETER SPACE SYS-3 FLR-1 SCH-A HPLCMT-WEST ZN, Heating, 10590.57333, 13767.74533, 0.41365, 0.53774, OTTAWA=MACDONALD-CARTIER INTL ANN HTG 99.6% CONDNS DB, 1/21 08:00:00, -24.20000, 4.26780E-004, 115.15318, 4.60780, 4.62133E-002, 0.00000
 Zone Sizing Information, SP-STORY 2 EAST CORE SPACE SYS-3 FLR-2 SCH-A HPLCMT-CORE ZN, Cooling, 86905.11332, 95595.62465, 6.51695, 7.16865, OTTAWA=MACDONALD-CARTIER INTL ANN CLG .4% CONDNS DB=>MWB, 7/21 12:00:00, 29.28700, 1.30168E-002, 3230.61013, 129.27137, 1.29651, 0.00000
 Zone Sizing Information, SP-STORY 2 EAST CORE SPACE SYS-3 FLR-2 SCH-A HPLCMT-CORE ZN, Heating, 61157.53960, 79504.80148, 2.35809, 3.06551, OTTAWA=MACDONALD-CARTIER INTL ANN HTG 99.6% CONDNS DB, 1/21 08:00:00, -24.20000, 4.26780E-004, 3230.61013, 129.27137, 1.29651, 0.00000
 Zone Sizing Information, SP-STORY 2 EAST LEFT PERIMETER SPACE SYS-3 FLR-2 SCH-A HPLCMT-EAST ZN, Cooling, 25218.19216, 27740.01138, 1.89109, 2.08020, OTTAWA=MACDONALD-CARTIER INTL ANN CLG .4% CONDNS DB=>MWB, 7/21 09:00:00, 25.04500, 1.30168E-002, 115.15318, 4.60780, 4.62133E-002, 0.00000
 Zone Sizing Information, SP-STORY 2 EAST LEFT PERIMETER SPACE SYS-3 FLR-2 SCH-A HPLCMT-EAST ZN, Heating, 12527.13897, 16285.28066, 0.48942, 0.63625, OTTAWA=MACDONALD-CARTIER INTL ANN HTG 99.6% CONDNS DB, 1/21 08:00:00, -24.20000, 4.26780E-004, 115.15318, 4.60780, 4.62133E-002, 0.00000
 Zone Sizing Information, SP-STORY 2 EAST RIGHT PERIMETER SPACE SYS-3 FLR-2 SCH-A HPLCMT-EAST ZN, Cooling, 38217.41247, 42039.15371, 2.86590, 3.15249, OTTAWA=MACDONALD-CARTIER INTL ANN CLG .4% CONDNS DB=>MWB, 7/21 09:00:00, 25.04500, 1.30168E-002, 170.40922, 6.81885, 6.83886E-002, 0.00000
 Zone Sizing Information, SP-STORY 2 EAST RIGHT PERIMETER SPACE SYS-3 FLR-2 SCH-A HPLCMT-EAST ZN, Heating, 18701.52842, 24311.98695, 0.73066, 0.94986, OTTAWA=MACDONALD-CARTIER INTL ANN HTG 99.6% CONDNS DB, 1/21 08:00:00, -24.20000, 4.26780E-004, 170.40922, 6.81885, 6.83886E-002, 0.00000
 Zone Sizing Information, SP-STORY 2 NORTH LEFT PERIMETER SPACE SYS-3 FLR-2 SCH-A HPLCMT-NORTH ZN, Cooling, 4079.63186, 4487.59505, 0.30594, 0.33653, OTTAWA=MACDONALD-CARTIER INTL ANN CLG .4% CONDNS DB=>MWB, 7/21 14:20:00, 30.60000, 1.30168E-002, 55.25604, 2.21104, 2.21754E-002, 0.00000
 Zone Sizing Information, SP-STORY 2 NORTH LEFT PERIMETER SPACE SYS-3 FLR-2 SCH-A HPLCMT-NORTH ZN, Heating, 6342.38960, 8245.10648, 0.24783, 0.32217, OTTAWA=MACDONALD-CARTIER INTL ANN HTG 99.6% CONDNS DB, 1/21 08:00:00, -24.20000, 4.26780E-004, 55.25604, 2.21104, 2.21754E-002, 0.00000
 Zone Sizing Information, SP-STORY 2 NORTH LOWER PERIMETER SPACE SYS-3 FLR-2 SCH-A HPLCMT-NORTH ZN, Cooling, 4148.58134, 4563.43948, 0.31110, 0.34221, OTTAWA=MACDONALD-CARTIER INTL ANN CLG .4% CONDNS DB=>MWB, 7/21 14:20:00, 30.60000, 1.30168E-002, 59.89713, 2.39676, 2.40379E-002, 0.00000
 Zone Sizing Information, SP-STORY 2 NORTH LOWER PERIMETER SPACE SYS-3 FLR-2 SCH-A HPLCMT-NORTH ZN, Heating, 6416.12414, 8340.96138, 0.25066, 0.32586, OTTAWA=MACDONALD-CARTIER INTL ANN HTG 99.6% CONDNS DB, 1/21 08:00:00, -24.20000, 4.26780E-004, 59.89713, 2.39676, 2.40379E-002, 0.00000
 Zone Sizing Information, SP-STORY 2 NORTH RIGHT PERIMETER SPACE SYS-3 FLR-2 SCH-A HPLCMT-NORTH ZN, Cooling, 4080.06981, 4488.07679, 0.30597, 0.33656, OTTAWA=MACDONALD-CARTIER INTL ANN CLG .4% CONDNS DB=>MWB, 7/21 14:20:00, 30.60000, 1.30168E-002, 55.25604, 2.21104, 2.21754E-002, 0.00000
 Zone Sizing Information, SP-STORY 2 NORTH RIGHT PERIMETER SPACE SYS-3 FLR-2 SCH-A HPLCMT-NORTH ZN, Heating, 6341.66913, 8244.16986, 0.24780, 0.32214, OTTAWA=MACDONALD-CARTIER INTL ANN HTG 99.6% CONDNS DB, 1/21 08:00:00, -24.20000, 4.26780E-004, 55.25604, 2.21104, 2.21754E-002, 0.00000
 Zone Sizing Information, SP-STORY 2 SOUTH CORE SPACE SYS-3 FLR-2 SCH-A HPLCMT-CORE ZN, Cooling, 69885.44883, 76873.99371, 5.24045, 5.76449, OTTAWA=MACDONALD-CARTIER INTL ANN CLG .4% CONDNS DB=>MWB, 7/21 14:40:00, 30.60000, 1.30168E-002, 2626.83650, 105.11165, 1.05420, 0.00000
 Zone Sizing Information, SP-STORY 2 SOUTH CORE SPACE SYS-3 FLR-2 SCH-A HPLCMT-CORE ZN, Heating, 49081.61645, 63806.10139, 1.89206, 2.45968, OTTAWA=MACDONALD-CARTIER INTL ANN HTG 99.6% CONDNS DB, 1/21 08:00:00, -24.20000, 4.26780E-004, 2626.83650, 105.11165, 1.05420, 0.00000
 Zone Sizing Information, SP-STORY 2 SOUTH LOWER PERIMETER SPACE SYS-3 FLR-2 SCH-A HPLCMT-SOUTH ZN, Cooling, 21876.27792, 24063.90572, 1.64053, 1.80458, OTTAWA=MACDONALD-CARTIER INTL ANN CLG .4% CONDNS DB=>MWB, 7/21 13:00:00, 30.09500, 1.30168E-002, 170.40922, 6.81885, 6.83886E-002, 0.00000
 Zone Sizing Information, SP-STORY 2 SOUTH LOWER PERIMETER SPACE SYS-3 FLR-2 SCH-A HPLCMT-SOUTH ZN, Heating, 18651.30741, 24246.69963, 0.72870, 0.94731, OTTAWA=MACDONALD-CARTIER INTL ANN HTG 99.6% CONDNS DB, 1/21 08:00:00, -24.20000, 4.26780E-004, 170.40922, 6.81885, 6.83886E-002, 0.00000
 Zone Sizing Information, SP-STORY 2 WEST CORE SPACE SYS-3 FLR-2 SCH-A HPLCMT-CORE ZN, Cooling, 87340.51341, 96074.56475, 6.54941, 7.20435, OTTAWA=MACDONALD-CARTIER INTL ANN CLG .4% CONDNS DB=>MWB, 7/21 15:00:00, 30.60000, 1.30168E-002, 3230.61013, 129.27137, 1.29651, 0.00000
 Zone Sizing Information, SP-STORY 2 WEST CORE SPACE SYS-3 FLR-2 SCH-A HPLCMT-CORE ZN, Heating, 61219.83734, 79585.78854, 2.36053, 3.06869, OTTAWA=MACDONALD-CARTIER INTL ANN HTG 99.6% CONDNS DB, 1/21 08:00:00, -24.20000, 4.26780E-004, 3230.61013, 129.27137, 1.29651, 0.00000
 Zone Sizing Information, SP-STORY 2 WEST LEFT PERIMETER SPACE SYS-3 FLR-2 SCH-A HPLCMT-WEST ZN, Cooling, 41819.03036, 46000.93339, 3.13605, 3.44966, OTTAWA=MACDONALD-CARTIER INTL ANN CLG .4% CONDNS DB=>MWB, 7/21 17:10:00, 29.01767, 1.30168E-002, 170.40922, 6.81885, 6.83886E-002, 0.00000
 Zone Sizing Information, SP-STORY 2 WEST LEFT PERIMETER SPACE SYS-3 FLR-2 SCH-A HPLCMT-WEST ZN, Heating, 18905.89750, 24577.66675, 0.73867, 0.96027, OTTAWA=MACDONALD-CARTIER INTL ANN HTG 99.6% CONDNS DB, 1/21 08:00:00, -24.20000, 4.26780E-004, 170.40922, 6.81885, 6.83886E-002, 0.00000
 Zone Sizing Information, SP-STORY 2 WEST RIGHT PERIMETER SPACE SYS-3 FLR-2 SCH-A HPLCMT-WEST ZN, Cooling, 27736.27000, 30509.89700, 2.07997, 2.28797, OTTAWA=MACDONALD-CARTIER INTL ANN CLG .4% CONDNS DB=>MWB, 7/21 17:10:00, 29.01767, 1.30168E-002, 115.15318, 4.60780, 4.62133E-002, 0.00000
 Zone Sizing Information, SP-STORY 2 WEST RIGHT PERIMETER SPACE SYS-3 FLR-2 SCH-A HPLCMT-WEST ZN, Heating, 12661.94859, 16460.53317, 0.49470, 0.64311, OTTAWA=MACDONALD-CARTIER INTL ANN HTG 99.6% CONDNS DB, 1/21 08:00:00, -24.20000, 4.26780E-004, 115.15318, 4.60780, 4.62133E-002, 0.00000
! <System Sizing Information>, System Name, Load Type, Peak Load Kind, User Design Capacity, Calc Des Air Flow Rate [m3/s], User Des Air Flow Rate [m3/s], Design Day Name, Date/Time of Peak
 System Sizing Information, SYS_3_PSZ SP-STORY 1 EAST CORE SPACE SYS-3 FLR-1 SCH-A HPLCMT-CORE ZN, Cooling, Sensible, 60019.14, 3.95969, 3.95969, OTTAWA=MACDONALD-CARTIER INTL ANN CLG .4% CONDNS DB=>MWB, 7/21 05:00:00
 System Sizing Information, SYS_3_PSZ SP-STORY 1 EAST CORE SPACE SYS-3 FLR-1 SCH-A HPLCMT-CORE ZN, Heating, Sensible, 104007.22, 1.29651, 1.29651, OTTAWA=MACDONALD-CARTIER INTL ANN HTG 99.6% CONDNS DB, 1/21 00:10:00
 System Sizing Information, SYS_3_PSZ SP-STORY 1 EAST LEFT PERIMETER SPACE SYS-3 FLR-1 SCH-A HPLCMT-EAST ZN, Cooling, Sensible, 25806.62, 1.96241, 1.96241, OTTAWA=MACDONALD-CARTIER INTL ANN CLG .4% CONDNS DB=>MWB, 7/21 05:00:00
 System Sizing Information, SYS_3_PSZ SP-STORY 1 EAST LEFT PERIMETER SPACE SYS-3 FLR-1 SCH-A HPLCMT-EAST ZN, Heating, Sensible, 15898.61, 0.53099, 0.53099, OTTAWA=MACDONALD-CARTIER INTL ANN HTG 99.6% CONDNS DB, 1/21 08:00:00
 System Sizing Information, SYS_3_PSZ SP-STORY 1 EAST RIGHT PERIMETER SPACE SYS-3 FLR-1 SCH-A HPLCMT-EAST ZN, Cooling, Sensible, 39734.93, 3.01977, 3.01977, OTTAWA=MACDONALD-CARTIER INTL ANN CLG .4% CONDNS DB=>MWB, 7/21 05:00:00
 System Sizing Information, SYS_3_PSZ SP-STORY 1 EAST RIGHT PERIMETER SPACE SYS-3 FLR-1 SCH-A HPLCMT-EAST ZN, Heating, Sensible, 23821.43, 0.79747, 0.79747, OTTAWA=MACDONALD-CARTIER INTL ANN HTG 99.6% CONDNS DB, 1/21 08:00:00
 System Sizing Information, SYS_3_PSZ SP-STORY 1 NORTH LEFT PERIMETER SPACE SYS-3 FLR-1 SCH-A HPLCMT-NORTH ZN, Cooling, Sensible, 3129.93, 0.22508, 0.22508, OTTAWA=MACDONALD-CARTIER INTL ANN CLG .4% CONDNS DB=>MWB, 7/21 05:00:00
 System Sizing Information, SYS_3_PSZ SP-STORY 1 NORTH LEFT PERIMETER SPACE SYS-3 FLR-1 SCH-A HPLCMT-NORTH ZN, Heating, Sensible, 8078.93, 0.27269, 0.27269, OTTAWA=MACDONALD-CARTIER INTL ANN HTG 99.6% CONDNS DB, 1/21 08:00:00
 System Sizing Information, SYS_3_PSZ SP-STORY 1 NORTH LOWER PERIMETER SPACE SYS-3 FLR-1 SCH-A HPLCMT-NORTH ZN, Cooling, Sensible, 2995.11, 0.21369, 0.21369, OTTAWA=MACDONALD-CARTIER INTL ANN CLG .4% CONDNS DB=>MWB, 7/21 05:00:00
 System Sizing Information, SYS_3_PSZ SP-STORY 1 NORTH LOWER PERIMETER SPACE SYS-3 FLR-1 SCH-A HPLCMT-NORTH ZN, Heating, Sensible, 8083.01, 0.26877, 0.26877, OTTAWA=MACDONALD-CARTIER INTL ANN HTG 99.6% CONDNS DB, 1/21 08:00:00
 System Sizing Information, SYS_3_PSZ SP-STORY 1 NORTH RIGHT PERIMETER SPACE SYS-3 FLR-1 SCH-A HPLCMT-NORTH ZN, Cooling, Sensible, 3130.69, 0.22514, 0.22514, OTTAWA=MACDONALD-CARTIER INTL ANN CLG .4% CONDNS DB=>MWB, 7/21 05:00:00
 System Sizing Information, SYS_3_PSZ SP-STORY 1 NORTH RIGHT PERIMETER SPACE SYS-3 FLR-1 SCH-A HPLCMT-NORTH ZN, Heating, Sensible, 8078.01, 0.27265, 0.27265, OTTAWA=MACDONALD-CARTIER INTL ANN HTG 99.6% CONDNS DB, 1/21 08:00:00
 System Sizing Information, SYS_3_PSZ SP-STORY 1 SOUTH CORE SPACE SYS-3 FLR-1 SCH-A HPLCMT-CORE ZN, Cooling, Sensible, 45763.68, 2.98824, 2.98824, OTTAWA=MACDONALD-CARTIER INTL ANN CLG .4% CONDNS DB=>MWB, 7/21 05:00:00
 System Sizing Information, SYS_3_PSZ SP-STORY 1 SOUTH CORE SPACE SYS-3 FLR-1 SCH-A HPLCMT-CORE ZN, Heating, Sensible, 84569.15, 1.05420, 1.05420, OTTAWA=MACDONALD-CARTIER INTL ANN HTG 99.6% CONDNS DB, 1/21 00:10:00
 System Sizing Information, SYS_3_PSZ SP-STORY 1 SOUTH LOWER PERIMETER SPACE SYS-3 FLR-1 SCH-A HPLCMT-SOUTH ZN, Cooling, Sensible, 19960.54, 1.48236, 1.48236, OTTAWA=MACDONALD-CARTIER INTL ANN CLG .4% CONDNS DB=>MWB, 7/21 05:00:00
 System Sizing Information, SYS_3_PSZ SP-STORY 1 SOUTH LOWER PERIMETER SPACE SYS-3 FLR-1 SCH-A HPLCMT-SOUTH ZN, Heating, Sensible, 23688.27, 0.79217, 0.79217, OTTAWA=MACDONALD-CARTIER INTL ANN HTG 99.6% CONDNS DB, 1/21 08:00:00
 System Sizing Information, SYS_3_PSZ SP-STORY 1 WEST CORE SPACE SYS-3 FLR-1 SCH-A HPLCMT-CORE ZN, Cooling, Sensible, 61058.33, 4.03883, 4.03883, OTTAWA=MACDONALD-CARTIER INTL ANN CLG .4% CONDNS DB=>MWB, 7/21 05:00:00
 System Sizing Information, SYS_3_PSZ SP-STORY 1 WEST CORE SPACE SYS-3 FLR-1 SCH-A HPLCMT-CORE ZN, Heating, Sensible, 104007.22, 1.29651, 1.29651, OTTAWA=MACDONALD-CARTIER INTL ANN HTG 99.6% CONDNS DB, 1/21 00:10:00
 System Sizing Information, SYS_3_PSZ SP-STORY 1 WEST LEFT PERIMETER SPACE SYS-3 FLR-1 SCH-A HPLCMT-WEST ZN, Cooling, Sensible, 43694.96, 3.29781, 3.29781, OTTAWA=MACDONALD-CARTIER INTL ANN CLG .4% CONDNS DB=>MWB, 7/21 05:00:00
 System Sizing Information, SYS_3_PSZ SP-STORY 1 WEST LEFT PERIMETER SPACE SYS-3 FLR-1 SCH-A HPLCMT-WEST ZN, Heating, Sensible, 24071.97, 0.80743, 0.80743, OTTAWA=MACDONALD-CARTIER INTL ANN HTG 99.6% CONDNS DB, 1/21 08:00:00
 System Sizing Information, SYS_3_PSZ SP-STORY 1 WEST RIGHT PERIMETER SPACE SYS-3 FLR-1 SCH-A HPLCMT-WEST ZN, Cooling, Sensible, 28780.64, 2.17166, 2.17166, OTTAWA=MACDONALD-CARTIER INTL ANN CLG .4% CONDNS DB=>MWB, 7/21 05:00:00
 System Sizing Information, SYS_3_PSZ SP-STORY 1 WEST RIGHT PERIMETER SPACE SYS-3 FLR-1 SCH-A HPLCMT-WEST ZN, Heating, Sensible, 16068.35, 0.53774, 0.53774, OTTAWA=MACDONALD-CARTIER INTL ANN HTG 99.6% CONDNS DB, 1/21 08:00:00
 System Sizing Information, SYS_3_PSZ SP-STORY 2 EAST CORE SPACE SYS-3 FLR-2 SCH-A HPLCMT-CORE ZN, Cooling, Sensible, 102303.33, 7.16865, 7.16865, OTTAWA=MACDONALD-CARTIER INTL ANN CLG .4% CONDNS DB=>MWB, 7/21 05:00:00
 System Sizing Information, SYS_3_PSZ SP-STORY 2 EAST CORE SPACE SYS-3 FLR-2 SCH-A HPLCMT-CORE ZN, Heating, Sensible, 148786.46, 3.06551, 3.06551, OTTAWA=MACDONALD-CARTIER INTL ANN HTG 99.6% CONDNS DB, 1/21 08:00:00
 System Sizing Information, SYS_3_PSZ SP-STORY 2 EAST LEFT PERIMETER SPACE SYS-3 FLR-2 SCH-A HPLCMT-EAST ZN, Cooling, Sensible, 27368.82, 2.08020, 2.08020, OTTAWA=MACDONALD-CARTIER INTL ANN CLG .4% CONDNS DB=>MWB, 7/21 05:00:00
 System Sizing Information, SYS_3_PSZ SP-STORY 2 EAST LEFT PERIMETER SPACE SYS-3 FLR-2 SCH-A HPLCMT-EAST ZN, Heating, Sensible, 18547.34, 0.63625, 0.63625, OTTAWA=MACDONALD-CARTIER INTL ANN HTG 99.6% CONDNS DB, 1/21 08:00:00
 System Sizing Information, SYS_3_PSZ SP-STORY 2 EAST RIGHT PERIMETER SPACE SYS-3 FLR-2 SCH-A HPLCMT-EAST ZN, Cooling, Sensible, 41474.57, 3.15249, 3.15249, OTTAWA=MACDONALD-CARTIER INTL ANN CLG .4% CONDNS DB=>MWB, 7/21 05:00:00
 System Sizing Information, SYS_3_PSZ SP-STORY 2 EAST RIGHT PERIMETER SPACE SYS-3 FLR-2 SCH-A HPLCMT-EAST ZN, Heating, Sensible, 27656.43, 0.94986, 0.94986, OTTAWA=MACDONALD-CARTIER INTL ANN HTG 99.6% CONDNS DB, 1/21 08:00:00
 System Sizing Information, SYS_3_PSZ SP-STORY 2 NORTH LEFT PERIMETER SPACE SYS-3 FLR-2 SCH-A HPLCMT-NORTH ZN, Cooling, Sensible, 4592.98, 0.33653, 0.33653, OTTAWA=MACDONALD-CARTIER INTL ANN CLG .4% CONDNS DB=>MWB, 7/21 05:00:00
 System Sizing Information, SYS_3_PSZ SP-STORY 2 NORTH LEFT PERIMETER SPACE SYS-3 FLR-2 SCH-A HPLCMT-NORTH ZN, Heating, Sensible, 9324.32, 0.32217, 0.32217, OTTAWA=MACDONALD-CARTIER INTL ANN HTG 99.6% CONDNS DB, 1/21 08:00:00
 System Sizing Information, SYS_3_PSZ SP-STORY 2 NORTH LOWER PERIMETER SPACE SYS-3 FLR-2 SCH-A HPLCMT-NORTH ZN, Cooling, Sensible, 4682.33, 0.34221, 0.34221, OTTAWA=MACDONALD-CARTIER INTL ANN CLG .4% CONDNS DB=>MWB, 7/21 05:00:00
 System Sizing Information, SYS_3_PSZ SP-STORY 2 NORTH LOWER PERIMETER SPACE SYS-3 FLR-2 SCH-A HPLCMT-NORTH ZN, Heating, Sensible, 9519.46, 0.32586, 0.32586, OTTAWA=MACDONALD-CARTIER INTL ANN HTG 99.6% CONDNS DB, 1/21 08:00:00
 System Sizing Information, SYS_3_PSZ SP-STORY 2 NORTH RIGHT PERIMETER SPACE SYS-3 FLR-2 SCH-A HPLCMT-NORTH ZN, Cooling, Sensible, 4593.45, 0.33656, 0.33656, OTTAWA=MACDONALD-CARTIER INTL ANN CLG .4% CONDNS DB=>MWB, 7/21 05:00:00
 System Sizing Information, SYS_3_PSZ SP-STORY 2 NORTH RIGHT PERIMETER SPACE SYS-3 FLR-2 SCH-A HPLCMT-NORTH ZN, Heating, Sensible, 9323.40, 0.32214, 0.32214, OTTAWA=MACDONALD-CARTIER INTL ANN HTG 99.6% CONDNS DB, 1/21 08:00:00
 System Sizing Information, SYS_3_PSZ SP-STORY 2 SOUTH CORE SPACE SYS-3 FLR-2 SCH-A HPLCMT-CORE ZN, Cooling, Sensible, 83993.12, 5.76449, 5.76449, OTTAWA=MACDONALD-CARTIER INTL ANN CLG .4% CONDNS DB=>MWB, 7/21 05:00:00
 System Sizing Information, SYS_3_PSZ SP-STORY 2 SOUTH CORE SPACE SYS-3 FLR-2 SCH-A HPLCMT-CORE ZN, Heating, Sensible, 120144.86, 2.45968, 2.45968, OTTAWA=MACDONALD-CARTIER INTL ANN HTG 99.6% CONDNS DB, 1/21 08:00:00
 System Sizing Information, SYS_3_PSZ SP-STORY 2 SOUTH LOWER PERIMETER SPACE SYS-3 FLR-2 SCH-A HPLCMT-SOUTH ZN, Cooling, Sensible, 24189.58, 1.80458, 1.80458, OTTAWA=MACDONALD-CARTIER INTL ANN CLG .4% CONDNS DB=>MWB, 7/21 05:00:00
 System Sizing Information, SYS_3_PSZ SP-STORY 2 SOUTH LOWER PERIMETER SPACE SYS-3 FLR-2 SCH-A HPLCMT-SOUTH ZN, Heating, Sensible, 27592.10, 0.94731, 0.94731, OTTAWA=MACDONALD-CARTIER INTL ANN HTG 99.6% CONDNS DB, 1/21 08:00:00
 System Sizing Information, SYS_3_PSZ SP-STORY 2 WEST CORE SPACE SYS-3 FLR-2 SCH-A HPLCMT-CORE ZN, Cooling, Sensible, 104806.51, 7.20435, 7.20435, OTTAWA=MACDONALD-CARTIER INTL ANN CLG .4% CONDNS DB=>MWB, 7/21 05:00:00
 System Sizing Information, SYS_3_PSZ SP-STORY 2 WEST CORE SPACE SYS-3 FLR-2 SCH-A HPLCMT-CORE ZN, Heating, Sensible, 148866.95, 3.06869, 3.06869, OTTAWA=MACDONALD-CARTIER INTL ANN HTG 99.6% CONDNS DB, 1/21 08:00:00
 System Sizing Information, SYS_3_PSZ SP-STORY 2 WEST LEFT PERIMETER SPACE SYS-3 FLR-2 SCH-A HPLCMT-WEST ZN, Cooling, Sensible, 45699.43, 3.44966, 3.44966, OTTAWA=MACDONALD-CARTIER INTL ANN CLG .4% CONDNS DB=>MWB, 7/21 05:00:00
 System Sizing Information, SYS_3_PSZ SP-STORY 2 WEST LEFT PERIMETER SPACE SYS-3 FLR-2 SCH-A HPLCMT-WEST ZN, Heating, Sensible, 27918.29, 0.96027, 0.96027, OTTAWA=MACDONALD-CARTIER INTL ANN HTG 99.6% CONDNS DB, 1/21 08:00:00
 System Sizing Information, SYS_3_PSZ SP-STORY 2 WEST RIGHT PERIMETER SPACE SYS-3 FLR-2 SCH-A HPLCMT-WEST ZN, Cooling, Sensible, 30315.05, 2.28797, 2.28797, OTTAWA=MACDONALD-CARTIER INTL ANN CLG .4% CONDNS DB=>MWB, 7/21 05:00:00
 System Sizing Information, SYS_3_PSZ SP-STORY 2 WEST RIGHT PERIMETER SPACE SYS-3 FLR-2 SCH-A HPLCMT-WEST ZN, Heating, Sensible, 18720.08, 0.64311, 0.64311, OTTAWA=MACDONALD-CARTIER INTL ANN HTG 99.6% CONDNS DB, 1/21 08:00:00
! <Component Sizing Information>, Component Type, Component Name, Input Field Description, Value
 Component Sizing Information, AirTerminal:SingleDuct:Uncontrolled, AIR TERMINAL SINGLE DUCT UNCONTROLLED 9, Design Size Maximum Air Flow Rate [m3/s], 3.95969
 Component Sizing Information, ZoneHVAC:Baseboard:Convective:Water, ZONE HVAC BASEBOARD CONVECTIVE WATER 9, Design Size Maximum Water Flow Rate [m3/s], 4.30394E-004
 Component Sizing Information, ZoneHVAC:Baseboard:Convective:Water, ZONE HVAC BASEBOARD CONVECTIVE WATER 9, Design Size U-Factor Times Area Value [W/K], 872.34876
 Component Sizing Information, AirTerminal:SingleDuct:Uncontrolled, AIR TERMINAL SINGLE DUCT UNCONTROLLED 4, Design Size Maximum Air Flow Rate [m3/s], 1.96241
 Component Sizing Information, ZoneHVAC:Baseboard:Convective:Water, ZONE HVAC BASEBOARD CONVECTIVE WATER 4, Design Size Maximum Water Flow Rate [m3/s], 2.03060E-004
 Component Sizing Information, ZoneHVAC:Baseboard:Convective:Water, ZONE HVAC BASEBOARD CONVECTIVE WATER 4, Design Size U-Factor Times Area Value [W/K], 414.38925
 Component Sizing Information, AirTerminal:SingleDuct:Uncontrolled, AIR TERMINAL SINGLE DUCT UNCONTROLLED 5, Design Size Maximum Air Flow Rate [m3/s], 3.01977
 Component Sizing Information, ZoneHVAC:Baseboard:Convective:Water, ZONE HVAC BASEBOARD CONVECTIVE WATER 5, Design Size Maximum Water Flow Rate [m3/s], 3.04952E-004
 Component Sizing Information, ZoneHVAC:Baseboard:Convective:Water, ZONE HVAC BASEBOARD CONVECTIVE WATER 5, Design Size U-Factor Times Area Value [W/K], 622.32068
 Component Sizing Information, AirTerminal:SingleDuct:Uncontrolled, AIR TERMINAL SINGLE DUCT UNCONTROLLED 1, Design Size Maximum Air Flow Rate [m3/s], 0.27269
 Component Sizing Information, ZoneHVAC:Baseboard:Convective:Water, ZONE HVAC BASEBOARD CONVECTIVE WATER 1, Design Size Maximum Water Flow Rate [m3/s], 1.04258E-004
 Component Sizing Information, ZoneHVAC:Baseboard:Convective:Water, ZONE HVAC BASEBOARD CONVECTIVE WATER 1, Design Size U-Factor Times Area Value [W/K], 212.75772
 Component Sizing Information, AirTerminal:SingleDuct:Uncontrolled, AIR TERMINAL SINGLE DUCT UNCONTROLLED 2, Design Size Maximum Air Flow Rate [m3/s], 0.26877
 Component Sizing Information, ZoneHVAC:Baseboard:Convective:Water, ZONE HVAC BASEBOARD CONVECTIVE WATER 2, Design Size Maximum Water Flow Rate [m3/s], 1.02793E-004
 Component Sizing Information, ZoneHVAC:Baseboard:Convective:Water, ZONE HVAC BASEBOARD CONVECTIVE WATER 2, Design Size U-Factor Times Area Value [W/K], 209.77091
 Component Sizing Information, AirTerminal:SingleDuct:Uncontrolled, AIR TERMINAL SINGLE DUCT UNCONTROLLED 3, Design Size Maximum Air Flow Rate [m3/s], 0.27265
 Component Sizing Information, ZoneHVAC:Baseboard:Convective:Water, ZONE HVAC BASEBOARD CONVECTIVE WATER 3, Design Size Maximum Water Flow Rate [m3/s], 1.04244E-004
 Component Sizing Information, ZoneHVAC:Baseboard:Convective:Water, ZONE HVAC BASEBOARD CONVECTIVE WATER 3, Design Size U-Factor Times Area Value [W/K], 212.72905
 Component Sizing Information, AirTerminal:SingleDuct:Uncontrolled, AIR TERMINAL SINGLE DUCT UNCONTROLLED 10, Design Size Maximum Air Flow Rate [m3/s], 2.98824
 Component Sizing Information, ZoneHVAC:Baseboard:Convective:Water, ZONE HVAC BASEBOARD CONVECTIVE WATER 10, Design Size Maximum Water Flow Rate [m3/s], 3.05507E-004
 Component Sizing Information, ZoneHVAC:Baseboard:Convective:Water, ZONE HVAC BASEBOARD CONVECTIVE WATER 10, Design Size U-Factor Times Area Value [W/K], 619.04515
 Component Sizing Information, AirTerminal:SingleDuct:Uncontrolled, AIR TERMINAL SINGLE DUCT UNCONTROLLED 8, Design Size Maximum Air Flow Rate [m3/s], 1.48236
 Component Sizing Information, ZoneHVAC:Baseboard:Convective:Water, ZONE HVAC BASEBOARD CONVECTIVE WATER 8, Design Size Maximum Water Flow Rate [m3/s], 3.02934E-004
 Component Sizing Information, ZoneHVAC:Baseboard:Convective:Water, ZONE HVAC BASEBOARD CONVECTIVE WATER 8, Design Size U-Factor Times Area Value [W/K], 618.20262
 Component Sizing Information, AirTerminal:SingleDuct:Uncontrolled, AIR TERMINAL SINGLE DUCT UNCONTROLLED 11, Design Size Maximum Air Flow Rate [m3/s], 4.03883
 Component Sizing Information, ZoneHVAC:Baseboard:Convective:Water, ZONE HVAC BASEBOARD CONVECTIVE WATER 11, Design Size Maximum Water Flow Rate [m3/s], 4.31692E-004
 Component Sizing Information, ZoneHVAC:Baseboard:Convective:Water, ZONE HVAC BASEBOARD CONVECTIVE WATER 11, Design Size U-Factor Times Area Value [W/K], 874.98379
[...]
 Component Sizing Information, Coil:Cooling:DX:SingleSpeed, COIL COOLING DX SINGLE SPEED 21, Design Size Gross Rated Sensible Heat Ratio, 0.80032
 DX Cooling Coil Standard Rating Information, Coil:Cooling:DX:SingleSpeed, COIL COOLING DX SINGLE SPEED 21, 103365.8, 2.56, 8.73, 9.26, 8.97
 Component Sizing Information, Coil:Heating:Fuel, COIL HEATING GAS 21, Design Size Nominal Capacity [W], 203797.02845
 Component Sizing Information, Fan:ConstantVolume, FAN CONSTANT VOLUME 21, Design Size Maximum Flow Rate [m3/s], 5.76449
 Component Sizing Information, Controller:OutdoorAir, CONTROLLER OUTDOOR AIR 19, Maximum Outdoor Air Flow Rate [m3/s], 1.80458
 Component Sizing Information, Controller:OutdoorAir, CONTROLLER OUTDOOR AIR 19, Minimum Outdoor Air Flow Rate [m3/s], 6.83886E-002
 Component Sizing Information, Coil:Cooling:DX:SingleSpeed, COIL COOLING DX SINGLE SPEED 19, Design Size Rated Air Flow Rate [m3/s], 1.80458
 Component Sizing Information, Coil:Cooling:DX:SingleSpeed, COIL COOLING DX SINGLE SPEED 19, Design Size Gross Rated Total Cooling Capacity [W], 29872.24132
 Component Sizing Information, Coil:Cooling:DX:SingleSpeed, COIL COOLING DX SINGLE SPEED 19, Design Size Gross Rated Sensible Heat Ratio, 0.80066
 DX Cooling Coil Standard Rating Information, Coil:Cooling:DX:SingleSpeed, COIL COOLING DX SINGLE SPEED 19, 28472.0, 2.51, 8.56, 9.08, 8.70
 Component Sizing Information, Coil:Heating:Fuel, COIL HEATING GAS 19, Design Size Nominal Capacity [W], 49153.70323
 Component Sizing Information, Fan:ConstantVolume, FAN CONSTANT VOLUME 19, Design Size Maximum Flow Rate [m3/s], 1.80458
 Component Sizing Information, Controller:OutdoorAir, CONTROLLER OUTDOOR AIR 22, Maximum Outdoor Air Flow Rate [m3/s], 7.20435
 Component Sizing Information, Controller:OutdoorAir, CONTROLLER OUTDOOR AIR 22, Minimum Outdoor Air Flow Rate [m3/s], 1.29651
 Component Sizing Information, Coil:Cooling:DX:SingleSpeed, COIL COOLING DX SINGLE SPEED 22, Design Size Rated Air Flow Rate [m3/s], 7.20435
 Component Sizing Information, Coil:Cooling:DX:SingleSpeed, COIL COOLING DX SINGLE SPEED 22, Design Size Gross Rated Total Cooling Capacity [W], 134825.41452
 Component Sizing Information, Coil:Cooling:DX:SingleSpeed, COIL COOLING DX SINGLE SPEED 22, Design Size Gross Rated Sensible Heat Ratio, 0.80020
 DX Cooling Coil Standard Rating Information, Coil:Cooling:DX:SingleSpeed, COIL COOLING DX SINGLE SPEED 22, 129232.6, 2.56, 8.73, 9.26, 8.97
 Component Sizing Information, Coil:Heating:Fuel, COIL HEATING GAS 22, Design Size Nominal Capacity [W], 253554.13067
 Component Sizing Information, Fan:ConstantVolume, FAN CONSTANT VOLUME 22, Design Size Maximum Flow Rate [m3/s], 7.20435
 Component Sizing Information, Controller:OutdoorAir, CONTROLLER OUTDOOR AIR 17, Maximum Outdoor Air Flow Rate [m3/s], 3.44966
 Component Sizing Information, Controller:OutdoorAir, CONTROLLER OUTDOOR AIR 17, Minimum Outdoor Air Flow Rate [m3/s], 6.83886E-002
 Component Sizing Information, Coil:Cooling:DX:SingleSpeed, COIL COOLING DX SINGLE SPEED 17, Design Size Rated Air Flow Rate [m3/s], 3.44966
 Component Sizing Information, Coil:Cooling:DX:SingleSpeed, COIL COOLING DX SINGLE SPEED 17, Design Size Gross Rated Total Cooling Capacity [W], 57104.06892
 Component Sizing Information, Coil:Cooling:DX:SingleSpeed, COIL COOLING DX SINGLE SPEED 17, Design Size Gross Rated Sensible Heat Ratio, 0.80066
 DX Cooling Coil Standard Rating Information, Coil:Cooling:DX:SingleSpeed, COIL COOLING DX SINGLE SPEED 17, 54427.3, 2.51, 8.56, 9.08, 8.70
 Component Sizing Information, Coil:Heating:Fuel, COIL HEATING GAS 17, Design Size Nominal Capacity [W], 90529.63825
 Component Sizing Information, Fan:ConstantVolume, FAN CONSTANT VOLUME 17, Design Size Maximum Flow Rate [m3/s], 3.44966
 Component Sizing Information, Controller:OutdoorAir, CONTROLLER OUTDOOR AIR 18, Maximum Outdoor Air Flow Rate [m3/s], 2.28797
 Component Sizing Information, Controller:OutdoorAir, CONTROLLER OUTDOOR AIR 18, Minimum Outdoor Air Flow Rate [m3/s], 4.62133E-002
 Component Sizing Information, Coil:Cooling:DX:SingleSpeed, COIL COOLING DX SINGLE SPEED 18, Design Size Rated Air Flow Rate [m3/s], 2.28797
 Component Sizing Information, Coil:Cooling:DX:SingleSpeed, COIL COOLING DX SINGLE SPEED 18, Design Size Gross Rated Total Cooling Capacity [W], 37873.94907
 Component Sizing Information, Coil:Cooling:DX:SingleSpeed, COIL COOLING DX SINGLE SPEED 18, Design Size Gross Rated Sensible Heat Ratio, 0.80066
 DX Cooling Coil Standard Rating Information, Coil:Cooling:DX:SingleSpeed, COIL COOLING DX SINGLE SPEED 18, 36098.6, 2.51, 8.56, 9.08, 8.70
 Component Sizing Information, Coil:Heating:Fuel, COIL HEATING GAS 18, Design Size Nominal Capacity [W], 60090.13695
 Component Sizing Information, Fan:ConstantVolume, FAN CONSTANT VOLUME 18, Design Size Maximum Flow Rate [m3/s], 2.28797
Water Heater Information,WaterHeater:Mixed,400GAL NATURALGAS WATER HEATER - 270KBTU/HR,1.5143,79124.1,0.394,0.5997
 Component Sizing Information, PlantLoop, HOT WATER LOOP, Maximum Loop Flow Rate [m3/s], 8.08566E-003
 Component Sizing Information, PlantLoop, HOT WATER LOOP, Plant Loop Volume [m3], 0.97028
 Component Sizing Information, Pump:VariableSpeed, PUMP VARIABLE SPEED 1, Design Flow Rate [m3/s], 8.08566E-003
 Component Sizing Information, Pump:VariableSpeed, PUMP VARIABLE SPEED 1, Design Power Consumption [W], 2065.78122
 Component Sizing Information, Boiler:HotWater, PRIMARY BOILER, Design Size Nominal Capacity [W], 543455.83017
 Component Sizing Information, Boiler:HotWater, PRIMARY BOILER, Design Size Design Water Flow Rate [m3/s], 8.08566E-003
 Component Sizing Information, Boiler:HotWater, SECONDARY BOILER, Design Size Nominal Capacity [W], 543455.83017
 Component Sizing Information, Boiler:HotWater, SECONDARY BOILER, Design Size Design Water Flow Rate [m3/s], 8.08566E-003
 Component Sizing Information, PlantLoop, MAIN SERVICE WATER LOOP, Maximum Loop Flow Rate [m3/s], 3.82409E-004
 Component Sizing Information, PlantLoop, MAIN SERVICE WATER LOOP, Plant Loop Volume [m3], 4.58890E-002
 Component Sizing Information, Pump:ConstantSpeed, SERVICE WATER LOOP PUMP, Design Flow Rate [m3/s], 3.82409E-004
 Component Sizing Information, Pump:ConstantSpeed, SERVICE WATER LOOP PUMP, Design Power Consumption [W], 105.55780
 Component Sizing Information, WaterHeater:Mixed, 400GAL NATURALGAS WATER HEATER - 270KBTU/HR, Use Side Design Flow Rate [m3/s], 3.82409E-004
! <Environment>,Environment Name,Environment Type, Start Date, End Date, Start DayOfWeek, Duration {#days}, Source:Start DayOfWeek,  Use Daylight Saving, Use Holidays, Apply Weekend Holiday Rule,  Use Rain Values, Use Snow Values
! <Environment:Special Days>, Special Day Name, Special Day Type, Source, Start Date, Duration {#days}
! <Environment:Daylight Saving>, Daylight Saving Indicator, Source, Start Date, End Date
! <Environment:WarmupDays>, NumberofWarmupDays
Environment,OTTAWA=MACDONALD-CARTIER INTL ANN CLG .4% CONDNS DB=>MWB,SizingPeriod:DesignDay,07/21,07/21,SummerDesignDay,1,N/A,N/A,N/A,N/A,N/A,N/A
Environment:Daylight Saving,No,SizingPeriod:DesignDay
! <Environment:Design Day Data>, Max Dry-Bulb Temp {C}, Temp Range {dC}, Temp Range Ind Type, Hum Ind Value at Max Temp, Hum Ind Type,Pressure {Pa}, Wind Direction {deg CW from N}, Wind Speed {m/s}, Clearness, Rain, Snow
! <Environment:Design Day Misc>,DayOfYear,ASHRAE A Coeff,ASHRAE B Coeff,ASHRAE C Coeff,Solar Constant-Annual Variation,Eq of Time {minutes}, Solar Declination Angle {deg}, Solar Model
Environment:Design Day Data,30.60,10.10,DefaultMultipliers,99952,220,4.6,0.00,No,No
Environment:Design Day Misc,202,1084.4,0.2082,0.1365,1.0,-6.23,20.6,ASHRAETau
Environment:WarmupDays,  6
! <Tabular Report>,Style,Unit Conversion
Tabular Report,HTML,None
! <Warmup Convergence Information>,Zone Name,Environment Type/Name,Average Warmup Temperature Difference {deltaC},Std Dev Warmup Temperature Difference {deltaC},Max Temperature Pass/Fail Convergence,Min Temperature Pass/Fail Convergence,Average Warmup Load Difference {W},Std Dev Warmup Load Difference {W},Heating Load Pass/Fail Convergence,Cooling Load Pass/Fail Convergence
 Warmup Convergence Information,SP-STORY 1 EAST CORE SPACE SYS-3 FLR-1 SCH-A HPLCMT-CORE ZN,SizingPeriod: OTTAWA=MACDONALD-CARTIER INTL ANN CLG .4% CONDNS DB=>MWB,2.4735789653E-002,7.5213438879E-002,Pass,Pass,6.4182364373,76.1056834159,Pass,Pass
 Warmup Convergence Information,SP-STORY 1 EAST LEFT PERIMETER SPACE SYS-3 FLR-1 SCH-A HPLCMT-EAST ZN,SizingPeriod: OTTAWA=MACDONALD-CARTIER INTL ANN CLG .4% CONDNS DB=>MWB,0.1220650729,0.6124097293,Pass,Pass,0.5911445801,4.4874284859,Pass,Pass
 Warmup Convergence Information,SP-STORY 1 EAST RIGHT PERIMETER SPACE SYS-3 FLR-1 SCH-A HPLCMT-EAST ZN,SizingPeriod: OTTAWA=MACDONALD-CARTIER INTL ANN CLG .4% CONDNS DB=>MWB,0.1341710581,0.6600275791,Pass,Pass,0.4679674581,3.3347672134,Pass,Pass
 Warmup Convergence Information,SP-STORY 1 NORTH LEFT PERIMETER SPACE SYS-3 FLR-1 SCH-A HPLCMT-NORTH ZN,SizingPeriod: OTTAWA=MACDONALD-CARTIER INTL ANN CLG .4% CONDNS DB=>MWB,4.2011000001E-002,0.1586661742,Pass,Pass,0.2346314395,1.5229266034,Pass,Pass
 Warmup Convergence Information,SP-STORY 1 NORTH LOWER PERIMETER SPACE SYS-3 FLR-1 SCH-A HPLCMT-NORTH ZN,SizingPeriod: OTTAWA=MACDONALD-CARTIER INTL ANN CLG .4% CONDNS DB=>MWB,2.5703962100E-002,8.8095283650E-002,Pass,Pass,0.6255825671,4.8719717511,Pass,Pass
 Warmup Convergence Information,SP-STORY 1 NORTH RIGHT PERIMETER SPACE SYS-3 FLR-1 SCH-A HPLCMT-NORTH ZN,SizingPeriod: OTTAWA=MACDONALD-CARTIER INTL ANN CLG .4% CONDNS DB=>MWB,4.2214168672E-002,0.1590063077,Pass,Pass,0.2277249542,1.5003917893,Pass,Pass
 Warmup Convergence Information,SP-STORY 1 SOUTH CORE SPACE SYS-3 FLR-1 SCH-A HPLCMT-CORE ZN,SizingPeriod: OTTAWA=MACDONALD-CARTIER INTL ANN CLG .4% CONDNS DB=>MWB,2.1824260698E-002,6.1341454228E-002,Pass,Pass,1.3143020424,15.1194108956,Pass,Pass
 Warmup Convergence Information,SP-STORY 1 SOUTH LOWER PERIMETER SPACE SYS-3 FLR-1 SCH-A HPLCMT-SOUTH ZN,SizingPeriod: OTTAWA=MACDONALD-CARTIER INTL ANN CLG .4% CONDNS DB=>MWB,3.2237661630E-002,0.1219514884,Pass,Pass,0.7162172946,6.5491311634,Pass,Pass
 Warmup Convergence Information,SP-STORY 1 WEST CORE SPACE SYS-3 FLR-1 SCH-A HPLCMT-CORE ZN,SizingPeriod: OTTAWA=MACDONALD-CARTIER INTL ANN CLG .4% CONDNS DB=>MWB,2.4601871541E-002,7.5385437445E-002,Pass,Pass,26.5849990376,317.1928166217,Pass,Pass
 Warmup Convergence Information,SP-STORY 1 WEST LEFT PERIMETER SPACE SYS-3 FLR-1 SCH-A HPLCMT-WEST ZN,SizingPeriod: OTTAWA=MACDONALD-CARTIER INTL ANN CLG .4% CONDNS DB=>MWB,5.6660029396E-002,0.2570951270,Pass,Pass,0.1945150906,0.7323920887,Pass,Pass
 Warmup Convergence Information,SP-STORY 1 WEST RIGHT PERIMETER SPACE SYS-3 FLR-1 SCH-A HPLCMT-WEST ZN,SizingPeriod: OTTAWA=MACDONALD-CARTIER INTL ANN CLG .4% CONDNS DB=>MWB,5.4484155422E-002,0.2464808141,Pass,Pass,0.2002404748,0.7790401576,Pass,Pass
 Warmup Convergence Information,SP-STORY 2 EAST CORE SPACE SYS-3 FLR-2 SCH-A HPLCMT-CORE ZN,SizingPeriod: OTTAWA=MACDONALD-CARTIER INTL ANN CLG .4% CONDNS DB=>MWB,2.8745616597E-002,8.5446428203E-002,Pass,Pass,0.2933326094,2.3712936193,Pass,Pass
 Warmup Convergence Information,SP-STORY 2 EAST LEFT PERIMETER SPACE SYS-3 FLR-2 SCH-A HPLCMT-EAST ZN,SizingPeriod: OTTAWA=MACDONALD-CARTIER INTL ANN CLG .4% CONDNS DB=>MWB,0.1302197305,0.6488008883,Pass,Pass,0.2565646322,1.8936099369,Pass,Pass
 Warmup Convergence Information,SP-STORY 2 EAST RIGHT PERIMETER SPACE SYS-3 FLR-2 SCH-A HPLCMT-EAST ZN,SizingPeriod: OTTAWA=MACDONALD-CARTIER INTL ANN CLG .4% CONDNS DB=>MWB,0.1336705640,0.6662852053,Pass,Pass,0.2804710594,2.0492588473,Pass,Pass
 Warmup Convergence Information,SP-STORY 2 NORTH LEFT PERIMETER SPACE SYS-3 FLR-2 SCH-A HPLCMT-NORTH ZN,SizingPeriod: OTTAWA=MACDONALD-CARTIER INTL ANN CLG .4% CONDNS DB=>MWB,4.3258380207E-002,0.1629055126,Pass,Pass,0.1731601679,0.9597409363,Pass,Pass
 Warmup Convergence Information,SP-STORY 2 NORTH LOWER PERIMETER SPACE SYS-3 FLR-2 SCH-A HPLCMT-NORTH ZN,SizingPeriod: OTTAWA=MACDONALD-CARTIER INTL ANN CLG .4% CONDNS DB=>MWB,3.4323541234E-002,0.1221841055,Pass,Pass,0.1753337068,0.9208247398,Pass,Pass
 Warmup Convergence Information,SP-STORY 2 NORTH RIGHT PERIMETER SPACE SYS-3 FLR-2 SCH-A HPLCMT-NORTH ZN,SizingPeriod: OTTAWA=MACDONALD-CARTIER INTL ANN CLG .4% CONDNS DB=>MWB,4.3260669157E-002,0.1622500681,Pass,Pass,0.1729050841,0.9511541927,Pass,Pass
 Warmup Convergence Information,SP-STORY 2 SOUTH CORE SPACE SYS-3 FLR-2 SCH-A HPLCMT-CORE ZN,SizingPeriod: OTTAWA=MACDONALD-CARTIER INTL ANN CLG .4% CONDNS DB=>MWB,2.4900045639E-002,6.9614498719E-002,Pass,Pass,0.2486642061,1.9242239286,Pass,Pass
 Warmup Convergence Information,SP-STORY 2 SOUTH LOWER PERIMETER SPACE SYS-3 FLR-2 SCH-A HPLCMT-SOUTH ZN,SizingPeriod: OTTAWA=MACDONALD-CARTIER INTL ANN CLG .4% CONDNS DB=>MWB,3.2709837629E-002,0.1199962189,Pass,Pass,0.1555496363,0.7271035968,Pass,Pass
 Warmup Convergence Information,SP-STORY 2 WEST CORE SPACE SYS-3 FLR-2 SCH-A HPLCMT-CORE ZN,SizingPeriod: OTTAWA=MACDONALD-CARTIER INTL ANN CLG .4% CONDNS DB=>MWB,2.8357100075E-002,8.4516392716E-002,Pass,Pass,0.3421516513,2.5993970327,Pass,Pass
 Warmup Convergence Information,SP-STORY 2 WEST LEFT PERIMETER SPACE SYS-3 FLR-2 SCH-A HPLCMT-WEST ZN,SizingPeriod: OTTAWA=MACDONALD-CARTIER INTL ANN CLG .4% CONDNS DB=>MWB,4.8992630802E-002,0.2221671951,Pass,Pass,0.2653591010,1.3301461192,Pass,Pass
 Warmup Convergence Information,SP-STORY 2 WEST RIGHT PERIMETER SPACE SYS-3 FLR-2 SCH-A HPLCMT-WEST ZN,SizingPeriod: OTTAWA=MACDONALD-CARTIER INTL ANN CLG .4% CONDNS DB=>MWB,4.7740624470E-002,0.2159754674,Pass,Pass,0.2561176072,1.3395570734,Pass,Pass
Environment,OTTAWA=MACDONALD-CARTIER INTL ANN HTG 99.6% CONDNS DB,SizingPeriod:DesignDay,01/21,01/21,WinterDesignDay,1,N/A,N/A,N/A,N/A,N/A,N/A
Environment:Daylight Saving,No,SizingPeriod:DesignDay
Environment:Design Day Data,-24.20,0.00,DefaultMultipliers,99952,290,3.5,0.00,No,No
Environment:Design Day Misc, 21,1229.0,0.1415,5.7310E-002,1.0,-11.15,-20.1,ASHRAEClearSky
Environment:WarmupDays,  6
 Warmup Convergence Information,SP-STORY 1 EAST CORE SPACE SYS-3 FLR-1 SCH-A HPLCMT-CORE ZN,SizingPeriod: OTTAWA=MACDONALD-CARTIER INTL ANN HTG 99.6% CONDNS DB,5.5557734678E-002,0.2305540245,Pass,Pass,0.2427189142,0.9078274923,Pass,Pass
 Warmup Convergence Information,SP-STORY 1 EAST LEFT PERIMETER SPACE SYS-3 FLR-1 SCH-A HPLCMT-EAST ZN,SizingPeriod: OTTAWA=MACDONALD-CARTIER INTL ANN HTG 99.6% CONDNS DB,5.5559788872E-002,0.3337115271,Pass,Pass,3.5411415688E-002,0.1764499224,Pass,Pass
 Warmup Convergence Information,SP-STORY 1 EAST RIGHT PERIMETER SPACE SYS-3 FLR-1 SCH-A HPLCMT-EAST ZN,SizingPeriod: OTTAWA=MACDONALD-CARTIER INTL ANN HTG 99.6% CONDNS DB,5.5559717834E-002,0.3337603376,Pass,Pass,3.4180745339E-002,0.1688546580,Pass,Pass
 Warmup Convergence Information,SP-STORY 1 NORTH LEFT PERIMETER SPACE SYS-3 FLR-1 SCH-A HPLCMT-NORTH ZN,SizingPeriod: OTTAWA=MACDONALD-CARTIER INTL ANN HTG 99.6% CONDNS DB,5.5569356940E-002,0.3558278704,Pass,Pass,3.0930078437E-002,0.1484716995,Pass,Pass
 Warmup Convergence Information,SP-STORY 1 NORTH LOWER PERIMETER SPACE SYS-3 FLR-1 SCH-A HPLCMT-NORTH ZN,SizingPeriod: OTTAWA=MACDONALD-CARTIER INTL ANN HTG 99.6% CONDNS DB,5.5569466937E-002,0.3511240482,Pass,Pass,3.5295480649E-002,0.1754283416,Pass,Pass
 Warmup Convergence Information,SP-STORY 1 NORTH RIGHT PERIMETER SPACE SYS-3 FLR-1 SCH-A HPLCMT-NORTH ZN,SizingPeriod: OTTAWA=MACDONALD-CARTIER INTL ANN HTG 99.6% CONDNS DB,5.5569358921E-002,0.3558228453,Pass,Pass,3.0932387113E-002,0.1484850034,Pass,Pass
 Warmup Convergence Information,SP-STORY 1 SOUTH CORE SPACE SYS-3 FLR-1 SCH-A HPLCMT-CORE ZN,SizingPeriod: OTTAWA=MACDONALD-CARTIER INTL ANN HTG 99.6% CONDNS DB,5.5557973840E-002,0.2248135426,Pass,Pass,0.2675456066,1.2082030421,Pass,Pass
 Warmup Convergence Information,SP-STORY 1 SOUTH LOWER PERIMETER SPACE SYS-3 FLR-1 SCH-A HPLCMT-SOUTH ZN,SizingPeriod: OTTAWA=MACDONALD-CARTIER INTL ANN HTG 99.6% CONDNS DB,5.5563490019E-002,0.3482517321,Pass,Pass,3.2237709130E-002,0.1554890022,Pass,Pass
 Warmup Convergence Information,SP-STORY 1 WEST CORE SPACE SYS-3 FLR-1 SCH-A HPLCMT-CORE ZN,SizingPeriod: OTTAWA=MACDONALD-CARTIER INTL ANN HTG 99.6% CONDNS DB,5.5557889917E-002,0.2314586289,Pass,Pass,0.2589908839,1.0112857999,Pass,Pass
 Warmup Convergence Information,SP-STORY 1 WEST LEFT PERIMETER SPACE SYS-3 FLR-1 SCH-A HPLCMT-WEST ZN,SizingPeriod: OTTAWA=MACDONALD-CARTIER INTL ANN HTG 99.6% CONDNS DB,5.5559424845E-002,0.3319921214,Pass,Pass,3.2337775404E-002,0.1572085447,Pass,Pass
 Warmup Convergence Information,SP-STORY 1 WEST RIGHT PERIMETER SPACE SYS-3 FLR-1 SCH-A HPLCMT-WEST ZN,SizingPeriod: OTTAWA=MACDONALD-CARTIER INTL ANN HTG 99.6% CONDNS DB,5.5559442069E-002,0.3315869637,Pass,Pass,3.2603390203E-002,0.1582913193,Pass,Pass
 Warmup Convergence Information,SP-STORY 2 EAST CORE SPACE SYS-3 FLR-2 SCH-A HPLCMT-CORE ZN,SizingPeriod: OTTAWA=MACDONALD-CARTIER INTL ANN HTG 99.6% CONDNS DB,5.5563147196E-002,0.2978915263,Pass,Pass,0.1266727782,0.4086234808,Pass,Pass
 Warmup Convergence Information,SP-STORY 2 EAST LEFT PERIMETER SPACE SYS-3 FLR-2 SCH-A HPLCMT-EAST ZN,SizingPeriod: OTTAWA=MACDONALD-CARTIER INTL ANN HTG 99.6% CONDNS DB,5.5560296321E-002,0.3451210485,Pass,Pass,2.5222001755E-002,0.1081591422,Pass,Pass
 Warmup Convergence Information,SP-STORY 2 EAST RIGHT PERIMETER SPACE SYS-3 FLR-2 SCH-A HPLCMT-EAST ZN,SizingPeriod: OTTAWA=MACDONALD-CARTIER INTL ANN HTG 99.6% CONDNS DB,5.5560263447E-002,0.3452750442,Pass,Pass,2.4730697163E-002,0.1055487610,Pass,Pass
 Warmup Convergence Information,SP-STORY 2 NORTH LEFT PERIMETER SPACE SYS-3 FLR-2 SCH-A HPLCMT-NORTH ZN,SizingPeriod: OTTAWA=MACDONALD-CARTIER INTL ANN HTG 99.6% CONDNS DB,5.5567720446E-002,0.3634222372,Pass,Pass,2.4213184185E-002,0.1027180632,Pass,Pass
 Warmup Convergence Information,SP-STORY 2 NORTH LOWER PERIMETER SPACE SYS-3 FLR-2 SCH-A HPLCMT-NORTH ZN,SizingPeriod: OTTAWA=MACDONALD-CARTIER INTL ANN HTG 99.6% CONDNS DB,5.5567326443E-002,0.3606650906,Pass,Pass,2.6494264537E-002,0.1148387017,Pass,Pass
 Warmup Convergence Information,SP-STORY 2 NORTH RIGHT PERIMETER SPACE SYS-3 FLR-2 SCH-A HPLCMT-NORTH ZN,SizingPeriod: OTTAWA=MACDONALD-CARTIER INTL ANN HTG 99.6% CONDNS DB,5.5567718277E-002,0.3634189330,Pass,Pass,2.4215780107E-002,0.1027321306,Pass,Pass
 Warmup Convergence Information,SP-STORY 2 SOUTH CORE SPACE SYS-3 FLR-2 SCH-A HPLCMT-CORE ZN,SizingPeriod: OTTAWA=MACDONALD-CARTIER INTL ANN HTG 99.6% CONDNS DB,5.5563051727E-002,0.2971463532,Pass,Pass,0.1142158192,0.3274856194,Pass,Pass
 Warmup Convergence Information,SP-STORY 2 SOUTH LOWER PERIMETER SPACE SYS-3 FLR-2 SCH-A HPLCMT-SOUTH ZN,SizingPeriod: OTTAWA=MACDONALD-CARTIER INTL ANN HTG 99.6% CONDNS DB,5.5563216862E-002,0.3562395050,Pass,Pass,2.4840458427E-002,0.1053469057,Pass,Pass
 Warmup Convergence Information,SP-STORY 2 WEST CORE SPACE SYS-3 FLR-2 SCH-A HPLCMT-CORE ZN,SizingPeriod: OTTAWA=MACDONALD-CARTIER INTL ANN HTG 99.6% CONDNS DB,5.5563116423E-002,0.2979885635,Pass,Pass,0.1304473515,0.4362363633,Pass,Pass
 Warmup Convergence Information,SP-STORY 2 WEST LEFT PERIMETER SPACE SYS-3 FLR-2 SCH-A HPLCMT-WEST ZN,SizingPeriod: OTTAWA=MACDONALD-CARTIER INTL ANN HTG 99.6% CONDNS DB,5.5559932953E-002,0.3434182418,Pass,Pass,2.4405150593E-002,0.1042851813,Pass,Pass
 Warmup Convergence Information,SP-STORY 2 WEST RIGHT PERIMETER SPACE SYS-3 FLR-2 SCH-A HPLCMT-WEST ZN,SizingPeriod: OTTAWA=MACDONALD-CARTIER INTL ANN HTG 99.6% CONDNS DB,5.5559943809E-002,0.3431720055,Pass,Pass,2.4850030224E-002,0.1063932453,Pass,Pass
! <Program Control Information:Threads/Parallel Sims>, Threading Supported,Maximum Number of Threads, Env Set Threads (OMP_NUM_THREADS), EP Env Set Threads (EP_OMP_NUM_THREADS), IDF Set Threads, Number of Threads Used (Interior Radiant Exchange), Number Nominal Surfaces, Number Parallel Sims
Program Control:Threads/Parallel Sims, No,1, N/A, N/A, N/A, N/A, N/A, N/A
End of Data
