Program Version,EnergyPlus, Version 8.9.0-eba93e8e1b, YMD=2019.05.01 16:02
! This file shows details about the branches, nodes, and other
! elements of the flow connections.
! This file is intended for use in "debugging" potential problems
! that may also be detected by the program, but may be more easily
! identified by "eye".
! This file is also intended to support software which draws a
! schematic diagram of the HVAC system.
! ===============================================================
! #Nodes,<Number of Unique Nodes>
 #Nodes,385
! <Node>,<NodeNumber>,<Node Name>,<Node Fluid Type>,<# Times Node Referenced After Definition>
 Node,1,NODE 143,Air,4
 Node,2,NODE 78,Air,4
 Node,3,NODE 91,Air,4
 Node,4,NODE 40,Air,4
 Node,5,NODE 52,Air,4
 Node,6,NODE 65,Air,4
 Node,7,NODE 156,Air,4
 Node,8,NODE 130,Air,4
 Node,9,NODE 169,Air,4
 Node,10,NODE 104,Air,4
 Node,11,NODE 117,Air,4
 Node,12,NODE 286,Air,4
 Node,13,NODE 221,Air,4
 Node,14,NODE 234,Air,4
 Node,15,NODE 182,Air,4
 Node,16,NODE 195,Air,4
 Node,17,NODE 208,Air,4
 Node,18,NODE 299,Air,4
 Node,19,NODE 273,Air,4
 Node,20,NODE 312,Air,4
 Node,21,NODE 247,Air,4
 Node,22,NODE 260,Air,4
 Node,23,NODE 140,Air,10
 Node,24,NODE 141,Air,3
 Node,25,NODE 75,Air,10
 Node,26,NODE 76,Air,3
 Node,27,NODE 88,Air,10
 Node,28,NODE 89,Air,3
 Node,29,NODE 37,Air,10
 Node,30,NODE 38,Air,3
 Node,31,NODE 49,Air,10
 Node,32,NODE 50,Air,3
 Node,33,NODE 62,Air,10
 Node,34,NODE 63,Air,3
 Node,35,NODE 153,Air,10
 Node,36,NODE 154,Air,3
 Node,37,NODE 127,Air,10
 Node,38,NODE 128,Air,3
 Node,39,NODE 166,Air,10
 Node,40,NODE 167,Air,3
 Node,41,NODE 101,Air,10
 Node,42,NODE 102,Air,3
 Node,43,NODE 114,Air,10
 Node,44,NODE 115,Air,3
 Node,45,NODE 283,Air,10
 Node,46,NODE 284,Air,3
 Node,47,NODE 218,Air,10
 Node,48,NODE 219,Air,3
 Node,49,NODE 231,Air,10
 Node,50,NODE 232,Air,3
 Node,51,NODE 179,Air,10
 Node,52,NODE 180,Air,3
 Node,53,NODE 192,Air,10
 Node,54,NODE 193,Air,3
 Node,55,NODE 205,Air,10
 Node,56,NODE 206,Air,3
 Node,57,NODE 296,Air,10
 Node,58,NODE 297,Air,3
 Node,59,NODE 270,Air,10
 Node,60,NODE 271,Air,3
 Node,61,NODE 309,Air,10
 Node,62,NODE 310,Air,3
 Node,63,NODE 244,Air,10
 Node,64,NODE 245,Air,3
 Node,65,NODE 257,Air,10
 Node,66,NODE 258,Air,3
 Node,67,NODE 139,Air,3
 Node,68,NODE 148,Air,6
 Node,69,NODE 147,Air,6
 Node,70,NODE 146,Air,8
 Node,71,NODE 74,Air,3
 Node,72,NODE 83,Air,6
 Node,73,NODE 82,Air,6
 Node,74,NODE 81,Air,8
 Node,75,NODE 87,Air,3
 Node,76,NODE 96,Air,6
 Node,77,NODE 95,Air,6
 Node,78,NODE 94,Air,8
 Node,79,NODE 36,Air,3
 Node,80,NODE 45,Air,6
 Node,81,NODE 44,Air,6
 Node,82,NODE 43,Air,8
 Node,83,NODE 48,Air,3
 Node,84,NODE 57,Air,6
 Node,85,NODE 56,Air,6
 Node,86,NODE 55,Air,8
 Node,87,NODE 61,Air,3
 Node,88,NODE 70,Air,6
 Node,89,NODE 69,Air,6
 Node,90,NODE 68,Air,8
 Node,91,NODE 152,Air,3
 Node,92,NODE 161,Air,6
 Node,93,NODE 160,Air,6
 Node,94,NODE 159,Air,8
 Node,95,NODE 126,Air,3
 Node,96,NODE 135,Air,6
 Node,97,NODE 134,Air,6
 Node,98,NODE 133,Air,8
 Node,99,NODE 165,Air,3
 Node,100,NODE 174,Air,6
 Node,101,NODE 173,Air,6
 Node,102,NODE 172,Air,8
 Node,103,NODE 100,Air,3
 Node,104,NODE 109,Air,6
 Node,105,NODE 108,Air,6
 Node,106,NODE 107,Air,8
 Node,107,NODE 113,Air,3
 Node,108,NODE 122,Air,6
 Node,109,NODE 121,Air,6
 Node,110,NODE 120,Air,8
 Node,111,NODE 282,Air,3
 Node,112,NODE 291,Air,6
 Node,113,NODE 290,Air,6
 Node,114,NODE 289,Air,8
 Node,115,NODE 217,Air,3
 Node,116,NODE 226,Air,6
 Node,117,NODE 225,Air,6
 Node,118,NODE 224,Air,8
 Node,119,NODE 230,Air,3
 Node,120,NODE 239,Air,6
 Node,121,NODE 238,Air,6
 Node,122,NODE 237,Air,8
 Node,123,NODE 178,Air,3
 Node,124,NODE 187,Air,6
 Node,125,NODE 186,Air,6
 Node,126,NODE 185,Air,8
 Node,127,NODE 191,Air,3
 Node,128,NODE 200,Air,6
 Node,129,NODE 199,Air,6
 Node,130,NODE 198,Air,8
 Node,131,NODE 204,Air,3
 Node,132,NODE 213,Air,6
 Node,133,NODE 212,Air,6
 Node,134,NODE 211,Air,8
 Node,135,NODE 295,Air,3
 Node,136,NODE 304,Air,6
 Node,137,NODE 303,Air,6
 Node,138,NODE 302,Air,8
 Node,139,NODE 269,Air,3
 Node,140,NODE 278,Air,6
 Node,141,NODE 277,Air,6
 Node,142,NODE 276,Air,8
 Node,143,NODE 308,Air,3
 Node,144,NODE 317,Air,6
 Node,145,NODE 316,Air,6
 Node,146,NODE 315,Air,8
 Node,147,NODE 243,Air,3
 Node,148,NODE 252,Air,6
 Node,149,NODE 251,Air,6
 Node,150,NODE 250,Air,8
 Node,151,NODE 256,Air,3
 Node,152,NODE 265,Air,6
 Node,153,NODE 264,Air,6
 Node,154,NODE 263,Air,8
 Node,155,NODE 23,Water,2
 Node,156,NODE 29,Water,1
 Node,157,NODE 25,Water,1
 Node,158,NODE 30,Water,1
 Node,159,NODE 31,Water,1
 Node,160,NODE 32,Water,1
 Node,161,NODE 33,Water,1
 Node,162,NODE 34,Water,1
 Node,163,NODE 35,Water,1
 Node,164,NODE 24,Water,4
 Node,165,NODE 26,Water,2
 Node,166,HOT WATER LOOP DEMAND INLET PIPE NODE,Water,1
 Node,167,NODE 28,Water,1
 Node,168,NODE 47,Water,1
 Node,169,NODE 59,Water,1
 Node,170,NODE 60,Water,1
 Node,171,NODE 72,Water,1
 Node,172,NODE 73,Water,1
 Node,173,NODE 85,Water,1
 Node,174,NODE 86,Water,1
 Node,175,NODE 98,Water,1
 Node,176,NODE 99,Water,1
 Node,177,NODE 111,Water,1
 Node,178,NODE 112,Water,1
 Node,179,NODE 124,Water,1
 Node,180,NODE 125,Water,1
 Node,181,NODE 137,Water,1
 Node,182,NODE 138,Water,1
 Node,183,NODE 150,Water,1
 Node,184,NODE 151,Water,1
 Node,185,NODE 163,Water,1
 Node,186,NODE 164,Water,1
 Node,187,NODE 176,Water,1
 Node,188,NODE 177,Water,1
 Node,189,NODE 189,Water,1
 Node,190,NODE 190,Water,1
 Node,191,NODE 202,Water,1
 Node,192,NODE 203,Water,1
 Node,193,NODE 215,Water,1
 Node,194,NODE 216,Water,1
 Node,195,NODE 228,Water,1
 Node,196,NODE 229,Water,1
 Node,197,NODE 241,Water,1
 Node,198,NODE 242,Water,1
 Node,199,NODE 254,Water,1
 Node,200,NODE 255,Water,1
 Node,201,NODE 267,Water,1
 Node,202,NODE 268,Water,1
 Node,203,NODE 280,Water,1
 Node,204,NODE 281,Water,1
 Node,205,NODE 293,Water,1
 Node,206,NODE 294,Water,1
 Node,207,NODE 306,Water,1
 Node,208,NODE 307,Water,1
 Node,209,NODE 319,Water,1
 Node,210,NODE 320,Water,1
 Node,211,HOT WATER LOOP DEMAND BYPASS PIPE INLET NODE,Water,1
 Node,212,HOT WATER LOOP DEMAND BYPASS PIPE OUTLET NODE,Water,1
 Node,213,HOT WATER LOOP DEMAND OUTLET PIPE NODE,Water,1
 Node,214,NODE 27,Water,2
 Node,215,NODE 321,Water,2
 Node,216,NODE 327,Water,1
 Node,217,NODE 323,Water,1
 Node,218,NODE 328,Water,1
 Node,219,NODE 329,Water,1
 Node,220,NODE 330,Water,1
 Node,221,NODE 332,Water,1
 Node,222,NODE 322,Water,4
 Node,223,NODE 324,Water,2
 Node,224,NODE 333,Water,1
 Node,225,NODE 326,Water,1
 Node,226,NODE 331,Water,1
 Node,227,NODE 335,Water,1
 Node,228,NODE 336,Water,1
 Node,229,NODE 337,Water,1
 Node,230,NODE 338,Water,1
 Node,231,NODE 339,Water,1
 Node,232,NODE 340,Water,1
 Node,233,NODE 341,Water,1
 Node,234,NODE 342,Water,1
 Node,235,NODE 343,Water,1
 Node,236,NODE 344,Water,1
 Node,237,NODE 345,Water,1
 Node,238,NODE 346,Water,1
 Node,239,NODE 347,Water,1
 Node,240,NODE 348,Water,1
 Node,241,NODE 349,Water,1
 Node,242,NODE 350,Water,1
 Node,243,NODE 351,Water,1
 Node,244,NODE 352,Water,1
 Node,245,NODE 353,Water,1
 Node,246,NODE 354,Water,1
 Node,247,NODE 355,Water,1
 Node,248,NODE 356,Water,1
 Node,249,NODE 357,Water,1
 Node,250,NODE 358,Water,1
 Node,251,NODE 359,Water,1
 Node,252,NODE 360,Water,1
 Node,253,NODE 361,Water,1
 Node,254,NODE 362,Water,1
 Node,255,NODE 363,Water,1
 Node,256,NODE 364,Water,1
 Node,257,NODE 365,Water,1
 Node,258,NODE 366,Water,1
 Node,259,NODE 367,Water,1
 Node,260,NODE 368,Water,1
 Node,261,NODE 369,Water,1
 Node,262,NODE 370,Water,1
 Node,263,NODE 371,Water,1
 Node,264,NODE 372,Water,1
 Node,265,NODE 373,Water,1
 Node,266,NODE 374,Water,1
 Node,267,NODE 375,Water,1
 Node,268,NODE 376,Water,1
 Node,269,NODE 377,Water,1
 Node,270,NODE 378,Water,1
 Node,271,MAIN SERVICE WATER LOOP DEMAND BYPASS PIPE INLET NODE,Water,1
 Node,272,MAIN SERVICE WATER LOOP DEMAND BYPASS PIPE OUTLET NODE,Water,1
 Node,273,NODE 334,Water,1
 Node,274,NODE 325,Water,2
 Node,275,NODE 9,Air,1
 Node,276,NODE 149,Air,1
 Node,277,NODE 4,Air,1
 Node,278,NODE 84,Air,1
 Node,279,NODE 5,Air,1
 Node,280,NODE 97,Air,1
 Node,281,NODE 1,Air,1
 Node,282,NODE 46,Air,1
 Node,283,NODE 2,Air,1
 Node,284,NODE 58,Air,1
 Node,285,NODE 3,Air,1
 Node,286,NODE 71,Air,1
 Node,287,NODE 10,Air,1
 Node,288,NODE 162,Air,1
 Node,289,NODE 8,Air,1
 Node,290,NODE 136,Air,1
 Node,291,NODE 11,Air,1
 Node,292,NODE 175,Air,1
 Node,293,NODE 6,Air,1
 Node,294,NODE 110,Air,1
 Node,295,NODE 7,Air,1
 Node,296,NODE 123,Air,1
 Node,297,NODE 20,Air,1
 Node,298,NODE 292,Air,1
 Node,299,NODE 15,Air,1
 Node,300,NODE 227,Air,1
 Node,301,NODE 16,Air,1
 Node,302,NODE 240,Air,1
 Node,303,NODE 12,Air,1
 Node,304,NODE 188,Air,1
 Node,305,NODE 13,Air,1
 Node,306,NODE 201,Air,1
 Node,307,NODE 14,Air,1
 Node,308,NODE 214,Air,1
 Node,309,NODE 21,Air,1
 Node,310,NODE 305,Air,1
 Node,311,NODE 19,Air,1
 Node,312,NODE 279,Air,1
 Node,313,NODE 22,Air,1
 Node,314,NODE 318,Air,1
 Node,315,NODE 17,Air,1
 Node,316,NODE 253,Air,1
 Node,317,NODE 18,Air,1
 Node,318,NODE 266,Air,1
 Node,319,NODE 142,Air,2
 Node,320,NODE 77,Air,2
 Node,321,NODE 90,Air,2
 Node,322,NODE 39,Air,2
 Node,323,NODE 51,Air,2
 Node,324,NODE 64,Air,2
 Node,325,NODE 155,Air,2
 Node,326,NODE 129,Air,2
 Node,327,NODE 168,Air,2
 Node,328,NODE 103,Air,2
 Node,329,NODE 116,Air,2
 Node,330,NODE 285,Air,2
 Node,331,NODE 220,Air,2
 Node,332,NODE 233,Air,2
 Node,333,NODE 181,Air,2
 Node,334,NODE 194,Air,2
 Node,335,NODE 207,Air,2
 Node,336,NODE 298,Air,2
 Node,337,NODE 272,Air,2
 Node,338,NODE 311,Air,2
 Node,339,NODE 246,Air,2
 Node,340,NODE 259,Air,2
 Node,341,NODE 144,Air,2
 Node,342,NODE 79,Air,2
 Node,343,NODE 92,Air,2
 Node,344,NODE 41,Air,2
 Node,345,NODE 53,Air,2
 Node,346,NODE 66,Air,2
 Node,347,NODE 157,Air,2
 Node,348,NODE 131,Air,2
 Node,349,NODE 170,Air,2
 Node,350,NODE 105,Air,2
 Node,351,NODE 118,Air,2
 Node,352,NODE 287,Air,2
 Node,353,NODE 222,Air,2
 Node,354,NODE 235,Air,2
 Node,355,NODE 183,Air,2
 Node,356,NODE 196,Air,2
 Node,357,NODE 209,Air,2
 Node,358,NODE 300,Air,2
 Node,359,NODE 274,Air,2
 Node,360,NODE 313,Air,2
 Node,361,NODE 248,Air,2
 Node,362,NODE 261,Air,2
 Node,363,MODEL OUTDOOR AIR NODE,Air,0
 Node,364,NODE 145,Air,1
 Node,365,NODE 80,Air,1
 Node,366,NODE 93,Air,1
 Node,367,NODE 42,Air,1
 Node,368,NODE 54,Air,1
 Node,369,NODE 67,Air,1
 Node,370,NODE 158,Air,1
 Node,371,NODE 132,Air,1
 Node,372,NODE 171,Air,1
 Node,373,NODE 106,Air,1
 Node,374,NODE 119,Air,1
 Node,375,NODE 288,Air,1
 Node,376,NODE 223,Air,1
 Node,377,NODE 236,Air,1
 Node,378,NODE 184,Air,1
 Node,379,NODE 197,Air,1
 Node,380,NODE 210,Air,1
 Node,381,NODE 301,Air,1
 Node,382,NODE 275,Air,1
 Node,383,NODE 314,Air,1
 Node,384,NODE 249,Air,1
 Node,385,NODE 262,Air,1
! ===============================================================
! Suspicious nodes have 0 references.  It is normal for some nodes, however.
! Listing nodes with 0 references (culled from previous list):
! <Suspicious Node>,<NodeNumber>,<Node Name>,<Node Fluid Type>,<# Times Node Referenced After Definition>
 Suspicious Node,363,MODEL OUTDOOR AIR NODE,Air,0
! ===============================================================
! <#Branch Lists>,<Number of Branch Lists>
 #Branch Lists,26
! <Branch List>,<Branch List Count>,<Branch List Name>,<Loop Name>,<Loop Type>,<Number of Branches>
! <Branch>,<Branch Count>,<Branch Name>,<Loop Name>,<Loop Type>,<Branch Inlet Node Name>,<Branch Outlet Node Name>
 Branch List,1,SYS_3_PSZ SP-STORY 1 EAST CORE SPACE SYS-3 FLR-1 SCH-A HPLCMT-CORE ZN SUPPLY BRANCHES,SYS_3_PSZ SP-STORY 1 EAST CORE SPACE SYS-3 FLR-1 SCH-A HPLCMT-CORE ZN,Air,1
   Branch,1,SYS_3_PSZ SP-STORY 1 EAST CORE SPACE SYS-3 FLR-1 SCH-A HPLCMT-CORE ZN MAIN BRANCH,SYS_3_PSZ SP-STORY 1 EAST CORE SPACE SYS-3 FLR-1 SCH-A HPLCMT-CORE ZN,Air,NODE 139,NODE 140
 Branch List,2,SYS_3_PSZ SP-STORY 1 EAST LEFT PERIMETER SPACE SYS-3 FLR-1 SCH-A HPLCMT-EAST ZN SUPPLY BRANCHES,SYS_3_PSZ SP-STORY 1 EAST LEFT PERIMETER SPACE SYS-3 FLR-1 SCH-A HPLCMT-EAST ZN,Air,1
   Branch,1,SYS_3_PSZ SP-STORY 1 EAST LEFT PERIMETER SPACE SYS-3 FLR-1 SCH-A HPLCMT-EAST ZN MAIN BRANCH,SYS_3_PSZ SP-STORY 1 EAST LEFT PERIMETER SPACE SYS-3 FLR-1 SCH-A HPLCMT-EAST ZN,Air,NODE 74,NODE 75
 Branch List,3,SYS_3_PSZ SP-STORY 1 EAST RIGHT PERIMETER SPACE SYS-3 FLR-1 SCH-A HPLCMT-EAST ZN SUPPLY BRANCHES,SYS_3_PSZ SP-STORY 1 EAST RIGHT PERIMETER SPACE SYS-3 FLR-1 SCH-A HPLCMT-EAST ZN,Air,1
   Branch,1,SYS_3_PSZ SP-STORY 1 EAST RIGHT PERIMETER SPACE SYS-3 FLR-1 SCH-A HPLCMT-EAST ZN MAIN BRANCH,SYS_3_PSZ SP-STORY 1 EAST RIGHT PERIMETER SPACE SYS-3 FLR-1 SCH-A HPLCMT-EAST ZN,Air,NODE 87,NODE 88
 Branch List,4,SYS_3_PSZ SP-STORY 1 NORTH LEFT PERIMETER SPACE SYS-3 FLR-1 SCH-A HPLCMT-NORTH ZN SUPPLY BRANCHES,SYS_3_PSZ SP-STORY 1 NORTH LEFT PERIMETER SPACE SYS-3 FLR-1 SCH-A HPLCMT-NORTH ZN,Air,1
   Branch,1,SYS_3_PSZ SP-STORY 1 NORTH LEFT PERIMETER SPACE SYS-3 FLR-1 SCH-A HPLCMT-NORTH ZN MAIN BRANCH,SYS_3_PSZ SP-STORY 1 NORTH LEFT PERIMETER SPACE SYS-3 FLR-1 SCH-A HPLCMT-NORTH ZN,Air,NODE 36,NODE 37
 Branch List,5,SYS_3_PSZ SP-STORY 1 NORTH LOWER PERIMETER SPACE SYS-3 FLR-1 SCH-A HPLCMT-NORTH ZN SUPPLY BRANCHES,SYS_3_PSZ SP-STORY 1 NORTH LOWER PERIMETER SPACE SYS-3 FLR-1 SCH-A HPLCMT-NORTH ZN,Air,1
   Branch,1,SYS_3_PSZ SP-STORY 1 NORTH LOWER PERIMETER SPACE SYS-3 FLR-1 SCH-A HPLCMT-NORTH ZN MAIN BRANCH,SYS_3_PSZ SP-STORY 1 NORTH LOWER PERIMETER SPACE SYS-3 FLR-1 SCH-A HPLCMT-NORTH ZN,Air,NODE 48,NODE 49
 Branch List,6,SYS_3_PSZ SP-STORY 1 NORTH RIGHT PERIMETER SPACE SYS-3 FLR-1 SCH-A HPLCMT-NORTH ZN SUPPLY BRANCHES,SYS_3_PSZ SP-STORY 1 NORTH RIGHT PERIMETER SPACE SYS-3 FLR-1 SCH-A HPLCMT-NORTH ZN,Air,1
   Branch,1,SYS_3_PSZ SP-STORY 1 NORTH RIGHT PERIMETER SPACE SYS-3 FLR-1 SCH-A HPLCMT-NORTH ZN MAIN BRANCH,SYS_3_PSZ SP-STORY 1 NORTH RIGHT PERIMETER SPACE SYS-3 FLR-1 SCH-A HPLCMT-NORTH ZN,Air,NODE 61,NODE 62
 Branch List,7,SYS_3_PSZ SP-STORY 1 SOUTH CORE SPACE SYS-3 FLR-1 SCH-A HPLCMT-CORE ZN SUPPLY BRANCHES,SYS_3_PSZ SP-STORY 1 SOUTH CORE SPACE SYS-3 FLR-1 SCH-A HPLCMT-CORE ZN,Air,1
   Branch,1,SYS_3_PSZ SP-STORY 1 SOUTH CORE SPACE SYS-3 FLR-1 SCH-A HPLCMT-CORE ZN MAIN BRANCH,SYS_3_PSZ SP-STORY 1 SOUTH CORE SPACE SYS-3 FLR-1 SCH-A HPLCMT-CORE ZN,Air,NODE 152,NODE 153
 Branch List,8,SYS_3_PSZ SP-STORY 1 SOUTH LOWER PERIMETER SPACE SYS-3 FLR-1 SCH-A HPLCMT-SOUTH ZN SUPPLY BRANCHES,SYS_3_PSZ SP-STORY 1 SOUTH LOWER PERIMETER SPACE SYS-3 FLR-1 SCH-A HPLCMT-SOUTH ZN,Air,1
   Branch,1,SYS_3_PSZ SP-STORY 1 SOUTH LOWER PERIMETER SPACE SYS-3 FLR-1 SCH-A HPLCMT-SOUTH ZN MAIN BRANCH,SYS_3_PSZ SP-STORY 1 SOUTH LOWER PERIMETER SPACE SYS-3 FLR-1 SCH-A HPLCMT-SOUTH ZN,Air,NODE 126,NODE 127
 Branch List,9,SYS_3_PSZ SP-STORY 1 WEST CORE SPACE SYS-3 FLR-1 SCH-A HPLCMT-CORE ZN SUPPLY BRANCHES,SYS_3_PSZ SP-STORY 1 WEST CORE SPACE SYS-3 FLR-1 SCH-A HPLCMT-CORE ZN,Air,1
   Branch,1,SYS_3_PSZ SP-STORY 1 WEST CORE SPACE SYS-3 FLR-1 SCH-A HPLCMT-CORE ZN MAIN BRANCH,SYS_3_PSZ SP-STORY 1 WEST CORE SPACE SYS-3 FLR-1 SCH-A HPLCMT-CORE ZN,Air,NODE 165,NODE 166
 Branch List,10,SYS_3_PSZ SP-STORY 1 WEST LEFT PERIMETER SPACE SYS-3 FLR-1 SCH-A HPLCMT-WEST ZN SUPPLY BRANCHES,SYS_3_PSZ SP-STORY 1 WEST LEFT PERIMETER SPACE SYS-3 FLR-1 SCH-A HPLCMT-WEST ZN,Air,1
   Branch,1,SYS_3_PSZ SP-STORY 1 WEST LEFT PERIMETER SPACE SYS-3 FLR-1 SCH-A HPLCMT-WEST ZN MAIN BRANCH,SYS_3_PSZ SP-STORY 1 WEST LEFT PERIMETER SPACE SYS-3 FLR-1 SCH-A HPLCMT-WEST ZN,Air,NODE 100,NODE 101
 Branch List,11,SYS_3_PSZ SP-STORY 1 WEST RIGHT PERIMETER SPACE SYS-3 FLR-1 SCH-A HPLCMT-WEST ZN SUPPLY BRANCHES,SYS_3_PSZ SP-STORY 1 WEST RIGHT PERIMETER SPACE SYS-3 FLR-1 SCH-A HPLCMT-WEST ZN,Air,1
   Branch,1,SYS_3_PSZ SP-STORY 1 WEST RIGHT PERIMETER SPACE SYS-3 FLR-1 SCH-A HPLCMT-WEST ZN MAIN BRANCH,SYS_3_PSZ SP-STORY 1 WEST RIGHT PERIMETER SPACE SYS-3 FLR-1 SCH-A HPLCMT-WEST ZN,Air,NODE 113,NODE 114
 Branch List,12,SYS_3_PSZ SP-STORY 2 EAST CORE SPACE SYS-3 FLR-2 SCH-A HPLCMT-CORE ZN SUPPLY BRANCHES,SYS_3_PSZ SP-STORY 2 EAST CORE SPACE SYS-3 FLR-2 SCH-A HPLCMT-CORE ZN,Air,1
   Branch,1,SYS_3_PSZ SP-STORY 2 EAST CORE SPACE SYS-3 FLR-2 SCH-A HPLCMT-CORE ZN MAIN BRANCH,SYS_3_PSZ SP-STORY 2 EAST CORE SPACE SYS-3 FLR-2 SCH-A HPLCMT-CORE ZN,Air,NODE 282,NODE 283
 Branch List,13,SYS_3_PSZ SP-STORY 2 EAST LEFT PERIMETER SPACE SYS-3 FLR-2 SCH-A HPLCMT-EAST ZN SUPPLY BRANCHES,SYS_3_PSZ SP-STORY 2 EAST LEFT PERIMETER SPACE SYS-3 FLR-2 SCH-A HPLCMT-EAST ZN,Air,1
   Branch,1,SYS_3_PSZ SP-STORY 2 EAST LEFT PERIMETER SPACE SYS-3 FLR-2 SCH-A HPLCMT-EAST ZN MAIN BRANCH,SYS_3_PSZ SP-STORY 2 EAST LEFT PERIMETER SPACE SYS-3 FLR-2 SCH-A HPLCMT-EAST ZN,Air,NODE 217,NODE 218
 Branch List,14,SYS_3_PSZ SP-STORY 2 EAST RIGHT PERIMETER SPACE SYS-3 FLR-2 SCH-A HPLCMT-EAST ZN SUPPLY BRANCHES,SYS_3_PSZ SP-STORY 2 EAST RIGHT PERIMETER SPACE SYS-3 FLR-2 SCH-A HPLCMT-EAST ZN,Air,1
   Branch,1,SYS_3_PSZ SP-STORY 2 EAST RIGHT PERIMETER SPACE SYS-3 FLR-2 SCH-A HPLCMT-EAST ZN MAIN BRANCH,SYS_3_PSZ SP-STORY 2 EAST RIGHT PERIMETER SPACE SYS-3 FLR-2 SCH-A HPLCMT-EAST ZN,Air,NODE 230,NODE 231
 Branch List,15,SYS_3_PSZ SP-STORY 2 NORTH LEFT PERIMETER SPACE SYS-3 FLR-2 SCH-A HPLCMT-NORTH ZN SUPPLY BRANCHES,SYS_3_PSZ SP-STORY 2 NORTH LEFT PERIMETER SPACE SYS-3 FLR-2 SCH-A HPLCMT-NORTH ZN,Air,1
   Branch,1,SYS_3_PSZ SP-STORY 2 NORTH LEFT PERIMETER SPACE SYS-3 FLR-2 SCH-A HPLCMT-NORTH ZN MAIN BRANCH,SYS_3_PSZ SP-STORY 2 NORTH LEFT PERIMETER SPACE SYS-3 FLR-2 SCH-A HPLCMT-NORTH ZN,Air,NODE 178,NODE 179
 Branch List,16,SYS_3_PSZ SP-STORY 2 NORTH LOWER PERIMETER SPACE SYS-3 FLR-2 SCH-A HPLCMT-NORTH ZN SUPPLY BRANCHES,SYS_3_PSZ SP-STORY 2 NORTH LOWER PERIMETER SPACE SYS-3 FLR-2 SCH-A HPLCMT-NORTH ZN,Air,1
   Branch,1,SYS_3_PSZ SP-STORY 2 NORTH LOWER PERIMETER SPACE SYS-3 FLR-2 SCH-A HPLCMT-NORTH ZN MAIN BRANCH,SYS_3_PSZ SP-STORY 2 NORTH LOWER PERIMETER SPACE SYS-3 FLR-2 SCH-A HPLCMT-NORTH ZN,Air,NODE 191,NODE 192
 Branch List,17,SYS_3_PSZ SP-STORY 2 NORTH RIGHT PERIMETER SPACE SYS-3 FLR-2 SCH-A HPLCMT-NORTH ZN SUPPLY BRANCHES,SYS_3_PSZ SP-STORY 2 NORTH RIGHT PERIMETER SPACE SYS-3 FLR-2 SCH-A HPLCMT-NORTH ZN,Air,1
   Branch,1,SYS_3_PSZ SP-STORY 2 NORTH RIGHT PERIMETER SPACE SYS-3 FLR-2 SCH-A HPLCMT-NORTH ZN MAIN BRANCH,SYS_3_PSZ SP-STORY 2 NORTH RIGHT PERIMETER SPACE SYS-3 FLR-2 SCH-A HPLCMT-NORTH ZN,Air,NODE 204,NODE 205
 Branch List,18,SYS_3_PSZ SP-STORY 2 SOUTH CORE SPACE SYS-3 FLR-2 SCH-A HPLCMT-CORE ZN SUPPLY BRANCHES,SYS_3_PSZ SP-STORY 2 SOUTH CORE SPACE SYS-3 FLR-2 SCH-A HPLCMT-CORE ZN,Air,1
   Branch,1,SYS_3_PSZ SP-STORY 2 SOUTH CORE SPACE SYS-3 FLR-2 SCH-A HPLCMT-CORE ZN MAIN BRANCH,SYS_3_PSZ SP-STORY 2 SOUTH CORE SPACE SYS-3 FLR-2 SCH-A HPLCMT-CORE ZN,Air,NODE 295,NODE 296
 Branch List,19,SYS_3_PSZ SP-STORY 2 SOUTH LOWER PERIMETER SPACE SYS-3 FLR-2 SCH-A HPLCMT-SOUTH ZN SUPPLY BRANCHES,SYS_3_PSZ SP-STORY 2 SOUTH LOWER PERIMETER SPACE SYS-3 FLR-2 SCH-A HPLCMT-SOUTH ZN,Air,1
   Branch,1,SYS_3_PSZ SP-STORY 2 SOUTH LOWER PERIMETER SPACE SYS-3 FLR-2 SCH-A HPLCMT-SOUTH ZN MAIN BRANCH,SYS_3_PSZ SP-STORY 2 SOUTH LOWER PERIMETER SPACE SYS-3 FLR-2 SCH-A HPLCMT-SOUTH ZN,Air,NODE 269,NODE 270
 Branch List,20,SYS_3_PSZ SP-STORY 2 WEST CORE SPACE SYS-3 FLR-2 SCH-A HPLCMT-CORE ZN SUPPLY BRANCHES,SYS_3_PSZ SP-STORY 2 WEST CORE SPACE SYS-3 FLR-2 SCH-A HPLCMT-CORE ZN,Air,1
   Branch,1,SYS_3_PSZ SP-STORY 2 WEST CORE SPACE SYS-3 FLR-2 SCH-A HPLCMT-CORE ZN MAIN BRANCH,SYS_3_PSZ SP-STORY 2 WEST CORE SPACE SYS-3 FLR-2 SCH-A HPLCMT-CORE ZN,Air,NODE 308,NODE 309
 Branch List,21,SYS_3_PSZ SP-STORY 2 WEST LEFT PERIMETER SPACE SYS-3 FLR-2 SCH-A HPLCMT-WEST ZN SUPPLY BRANCHES,SYS_3_PSZ SP-STORY 2 WEST LEFT PERIMETER SPACE SYS-3 FLR-2 SCH-A HPLCMT-WEST ZN,Air,1
   Branch,1,SYS_3_PSZ SP-STORY 2 WEST LEFT PERIMETER SPACE SYS-3 FLR-2 SCH-A HPLCMT-WEST ZN MAIN BRANCH,SYS_3_PSZ SP-STORY 2 WEST LEFT PERIMETER SPACE SYS-3 FLR-2 SCH-A HPLCMT-WEST ZN,Air,NODE 243,NODE 244
 Branch List,22,SYS_3_PSZ SP-STORY 2 WEST RIGHT PERIMETER SPACE SYS-3 FLR-2 SCH-A HPLCMT-WEST ZN SUPPLY BRANCHES,SYS_3_PSZ SP-STORY 2 WEST RIGHT PERIMETER SPACE SYS-3 FLR-2 SCH-A HPLCMT-WEST ZN,Air,1
   Branch,1,SYS_3_PSZ SP-STORY 2 WEST RIGHT PERIMETER SPACE SYS-3 FLR-2 SCH-A HPLCMT-WEST ZN MAIN BRANCH,SYS_3_PSZ SP-STORY 2 WEST RIGHT PERIMETER SPACE SYS-3 FLR-2 SCH-A HPLCMT-WEST ZN,Air,NODE 256,NODE 257
 Branch List,23,HOT WATER LOOP SUPPLY BRANCHES,HOT WATER LOOP,Plant Supply,5
   Branch,1,HOT WATER LOOP SUPPLY INLET BRANCH,HOT WATER LOOP,Plant Supply,NODE 23,NODE 29
   Branch,2,HOT WATER LOOP SUPPLY BRANCH 1,HOT WATER LOOP,Plant Supply,NODE 25,NODE 30
   Branch,3,HOT WATER LOOP SUPPLY BRANCH 2,HOT WATER LOOP,Plant Supply,NODE 31,NODE 32
   Branch,4,HOT WATER LOOP SUPPLY BRANCH 3,HOT WATER LOOP,Plant Supply,NODE 33,NODE 34
   Branch,5,HOT WATER LOOP SUPPLY OUTLET BRANCH,HOT WATER LOOP,Plant Supply,NODE 35,NODE 24
 Branch List,24,HOT WATER LOOP DEMAND BRANCHES,HOT WATER LOOP,Plant Demand,25
   Branch,1,HOT WATER LOOP DEMAND INLET BRANCH,HOT WATER LOOP,Plant Demand,NODE 26,HOT WATER LOOP DEMAND INLET PIPE NODE
   Branch,2,HOT WATER LOOP DEMAND BRANCH 1,HOT WATER LOOP,Plant Demand,NODE 28,NODE 47
   Branch,3,HOT WATER LOOP DEMAND BRANCH 2,HOT WATER LOOP,Plant Demand,NODE 59,NODE 60
   Branch,4,HOT WATER LOOP DEMAND BRANCH 3,HOT WATER LOOP,Plant Demand,NODE 72,NODE 73
   Branch,5,HOT WATER LOOP DEMAND BRANCH 4,HOT WATER LOOP,Plant Demand,NODE 85,NODE 86
   Branch,6,HOT WATER LOOP DEMAND BRANCH 5,HOT WATER LOOP,Plant Demand,NODE 98,NODE 99
   Branch,7,HOT WATER LOOP DEMAND BRANCH 6,HOT WATER LOOP,Plant Demand,NODE 111,NODE 112
   Branch,8,HOT WATER LOOP DEMAND BRANCH 7,HOT WATER LOOP,Plant Demand,NODE 124,NODE 125
   Branch,9,HOT WATER LOOP DEMAND BRANCH 8,HOT WATER LOOP,Plant Demand,NODE 137,NODE 138
   Branch,10,HOT WATER LOOP DEMAND BRANCH 9,HOT WATER LOOP,Plant Demand,NODE 150,NODE 151
   Branch,11,HOT WATER LOOP DEMAND BRANCH 10,HOT WATER LOOP,Plant Demand,NODE 163,NODE 164
   Branch,12,HOT WATER LOOP DEMAND BRANCH 11,HOT WATER LOOP,Plant Demand,NODE 176,NODE 177
   Branch,13,HOT WATER LOOP DEMAND BRANCH 12,HOT WATER LOOP,Plant Demand,NODE 189,NODE 190
   Branch,14,HOT WATER LOOP DEMAND BRANCH 13,HOT WATER LOOP,Plant Demand,NODE 202,NODE 203
   Branch,15,HOT WATER LOOP DEMAND BRANCH 14,HOT WATER LOOP,Plant Demand,NODE 215,NODE 216
   Branch,16,HOT WATER LOOP DEMAND BRANCH 15,HOT WATER LOOP,Plant Demand,NODE 228,NODE 229
   Branch,17,HOT WATER LOOP DEMAND BRANCH 16,HOT WATER LOOP,Plant Demand,NODE 241,NODE 242
   Branch,18,HOT WATER LOOP DEMAND BRANCH 17,HOT WATER LOOP,Plant Demand,NODE 254,NODE 255
   Branch,19,HOT WATER LOOP DEMAND BRANCH 18,HOT WATER LOOP,Plant Demand,NODE 267,NODE 268
   Branch,20,HOT WATER LOOP DEMAND BRANCH 19,HOT WATER LOOP,Plant Demand,NODE 280,NODE 281
   Branch,21,HOT WATER LOOP DEMAND BRANCH 20,HOT WATER LOOP,Plant Demand,NODE 293,NODE 294
   Branch,22,HOT WATER LOOP DEMAND BRANCH 21,HOT WATER LOOP,Plant Demand,NODE 306,NODE 307
   Branch,23,HOT WATER LOOP DEMAND BRANCH 22,HOT WATER LOOP,Plant Demand,NODE 319,NODE 320
   Branch,24,HOT WATER LOOP DEMAND BYPASS BRANCH,HOT WATER LOOP,Plant Demand,HOT WATER LOOP DEMAND BYPASS PIPE INLET NODE,HOT WATER LOOP DEMAND BYPASS PIPE OUTLET NODE
   Branch,25,HOT WATER LOOP DEMAND OUTLET BRANCH,HOT WATER LOOP,Plant Demand,HOT WATER LOOP DEMAND OUTLET PIPE NODE,NODE 27
 Branch List,25,MAIN SERVICE WATER LOOP SUPPLY BRANCHES,MAIN SERVICE WATER LOOP,Plant Supply,4
   Branch,1,MAIN SERVICE WATER LOOP SUPPLY INLET BRANCH,MAIN SERVICE WATER LOOP,Plant Supply,NODE 321,NODE 327
   Branch,2,MAIN SERVICE WATER LOOP SUPPLY BRANCH 1,MAIN SERVICE WATER LOOP,Plant Supply,NODE 323,NODE 328
   Branch,3,MAIN SERVICE WATER LOOP SUPPLY BRANCH 2,MAIN SERVICE WATER LOOP,Plant Supply,NODE 329,NODE 330
   Branch,4,MAIN SERVICE WATER LOOP SUPPLY OUTLET BRANCH,MAIN SERVICE WATER LOOP,Plant Supply,NODE 332,NODE 322
 Branch List,26,MAIN SERVICE WATER LOOP DEMAND BRANCHES,MAIN SERVICE WATER LOOP,Plant Demand,26
   Branch,1,MAIN SERVICE WATER LOOP DEMAND INLET BRANCH,MAIN SERVICE WATER LOOP,Plant Demand,NODE 324,NODE 333
   Branch,2,MAIN SERVICE WATER LOOP DEMAND BRANCH 1,MAIN SERVICE WATER LOOP,Plant Demand,NODE 326,NODE 331
   Branch,3,MAIN SERVICE WATER LOOP DEMAND BRANCH 2,MAIN SERVICE WATER LOOP,Plant Demand,NODE 335,NODE 336
   Branch,4,MAIN SERVICE WATER LOOP DEMAND BRANCH 3,MAIN SERVICE WATER LOOP,Plant Demand,NODE 337,NODE 338
   Branch,5,MAIN SERVICE WATER LOOP DEMAND BRANCH 4,MAIN SERVICE WATER LOOP,Plant Demand,NODE 339,NODE 340
   Branch,6,MAIN SERVICE WATER LOOP DEMAND BRANCH 5,MAIN SERVICE WATER LOOP,Plant Demand,NODE 341,NODE 342
   Branch,7,MAIN SERVICE WATER LOOP DEMAND BRANCH 6,MAIN SERVICE WATER LOOP,Plant Demand,NODE 343,NODE 344
   Branch,8,MAIN SERVICE WATER LOOP DEMAND BRANCH 7,MAIN SERVICE WATER LOOP,Plant Demand,NODE 345,NODE 346
   Branch,9,MAIN SERVICE WATER LOOP DEMAND BRANCH 8,MAIN SERVICE WATER LOOP,Plant Demand,NODE 347,NODE 348
   Branch,10,MAIN SERVICE WATER LOOP DEMAND BRANCH 9,MAIN SERVICE WATER LOOP,Plant Demand,NODE 349,NODE 350
   Branch,11,MAIN SERVICE WATER LOOP DEMAND BRANCH 10,MAIN SERVICE WATER LOOP,Plant Demand,NODE 351,NODE 352
   Branch,12,MAIN SERVICE WATER LOOP DEMAND BRANCH 11,MAIN SERVICE WATER LOOP,Plant Demand,NODE 353,NODE 354
   Branch,13,MAIN SERVICE WATER LOOP DEMAND BRANCH 12,MAIN SERVICE WATER LOOP,Plant Demand,NODE 355,NODE 356
   Branch,14,MAIN SERVICE WATER LOOP DEMAND BRANCH 13,MAIN SERVICE WATER LOOP,Plant Demand,NODE 357,NODE 358
   Branch,15,MAIN SERVICE WATER LOOP DEMAND BRANCH 14,MAIN SERVICE WATER LOOP,Plant Demand,NODE 359,NODE 360
   Branch,16,MAIN SERVICE WATER LOOP DEMAND BRANCH 15,MAIN SERVICE WATER LOOP,Plant Demand,NODE 361,NODE 362
   Branch,17,MAIN SERVICE WATER LOOP DEMAND BRANCH 16,MAIN SERVICE WATER LOOP,Plant Demand,NODE 363,NODE 364
   Branch,18,MAIN SERVICE WATER LOOP DEMAND BRANCH 17,MAIN SERVICE WATER LOOP,Plant Demand,NODE 365,NODE 366
   Branch,19,MAIN SERVICE WATER LOOP DEMAND BRANCH 18,MAIN SERVICE WATER LOOP,Plant Demand,NODE 367,NODE 368
   Branch,20,MAIN SERVICE WATER LOOP DEMAND BRANCH 19,MAIN SERVICE WATER LOOP,Plant Demand,NODE 369,NODE 370
   Branch,21,MAIN SERVICE WATER LOOP DEMAND BRANCH 20,MAIN SERVICE WATER LOOP,Plant Demand,NODE 371,NODE 372
   Branch,22,MAIN SERVICE WATER LOOP DEMAND BRANCH 21,MAIN SERVICE WATER LOOP,Plant Demand,NODE 373,NODE 374
   Branch,23,MAIN SERVICE WATER LOOP DEMAND BRANCH 22,MAIN SERVICE WATER LOOP,Plant Demand,NODE 375,NODE 376
   Branch,24,MAIN SERVICE WATER LOOP DEMAND BRANCH 23,MAIN SERVICE WATER LOOP,Plant Demand,NODE 377,NODE 378
   Branch,25,MAIN SERVICE WATER LOOP DEMAND BYPASS BRANCH,MAIN SERVICE WATER LOOP,Plant Demand,MAIN SERVICE WATER LOOP DEMAND BYPASS PIPE INLET NODE,MAIN SERVICE WATER LOOP DEMAND BYPASS PIPE OUTLET NODE
   Branch,26,MAIN SERVICE WATER LOOP DEMAND OUTLET BRANCH,MAIN SERVICE WATER LOOP,Plant Demand,NODE 334,NODE 325
! ===============================================================
! <#Supply Air Paths>,<Number of Supply Air Paths>
 #Supply Air Paths,22
! <Supply Air Path>,<Supply Air Path Count>,<Supply Air Path Name>,<AirLoopHVAC Name>
! <#Components on Supply Air Path>,<Number of Components>
! <Supply Air Path Component>,<Component Count>,<Component Type>,<Component Name>,<AirLoopHVAC Name>
! <#Outlet Nodes on Supply Air Path Component>,<Number of Nodes>
! <Supply Air Path Component Nodes>,<Node Count>,<Component Type>,<Component Name>,<Inlet Node Name>,<Outlet Node Name>,<AirLoopHVAC Name>
 Supply Air Path,1,SYS_3_PSZ SP-STORY 1 EAST CORE SPACE SYS-3 FLR-1 SCH-A HPLCMT-CORE ZN NODE 141 SUPPLY PATH,SYS_3_PSZ SP-STORY 1 EAST CORE SPACE SYS-3 FLR-1 SCH-A HPLCMT-CORE ZN
   #Components on Supply Air Path,1
   Supply Air Path Component,1,AIRLOOPHVAC:ZONESPLITTER,AIR LOOP HVAC ZONE SPLITTER 9,SYS_3_PSZ SP-STORY 1 EAST CORE SPACE SYS-3 FLR-1 SCH-A HPLCMT-CORE ZN
     #Outlet Nodes on Supply Air Path Component,1
     Supply Air Path Component Nodes,1,AIRLOOPHVAC:ZONESPLITTER,AIR LOOP HVAC ZONE SPLITTER 9,NODE 141,NODE 143,SYS_3_PSZ SP-STORY 1 EAST CORE SPACE SYS-3 FLR-1 SCH-A HPLCMT-CORE ZN
! <#Nodes on Supply Air Path>,<Number of Nodes>
! <Supply Air Path Node>,<Node Type>,<Node Count>,<Node Name>,<AirLoopHVAC Name>
#Nodes on Supply Air Path,2
   Supply Air Path Node,Inlet Node,1,NODE 141,SYS_3_PSZ SP-STORY 1 EAST CORE SPACE SYS-3 FLR-1 SCH-A HPLCMT-CORE ZN
   Supply Air Path Node,Outlet Node,2,NODE 143,SYS_3_PSZ SP-STORY 1 EAST CORE SPACE SYS-3 FLR-1 SCH-A HPLCMT-CORE ZN
 Supply Air Path,2,SYS_3_PSZ SP-STORY 1 EAST LEFT PERIMETER SPACE SYS-3 FLR-1 SCH-A HPLCMT-EAST ZN NODE 76 SUPPLY PATH,SYS_3_PSZ SP-STORY 1 EAST LEFT PERIMETER SPACE SYS-3 FLR-1 SCH-A HPLCMT-EAST ZN
   #Components on Supply Air Path,1
   Supply Air Path Component,1,AIRLOOPHVAC:ZONESPLITTER,AIR LOOP HVAC ZONE SPLITTER 4,SYS_3_PSZ SP-STORY 1 EAST LEFT PERIMETER SPACE SYS-3 FLR-1 SCH-A HPLCMT-EAST ZN
     #Outlet Nodes on Supply Air Path Component,1
     Supply Air Path Component Nodes,1,AIRLOOPHVAC:ZONESPLITTER,AIR LOOP HVAC ZONE SPLITTER 4,NODE 76,NODE 78,SYS_3_PSZ SP-STORY 1 EAST LEFT PERIMETER SPACE SYS-3 FLR-1 SCH-A HPLCMT-EAST ZN
! <#Nodes on Supply Air Path>,<Number of Nodes>
! <Supply Air Path Node>,<Node Type>,<Node Count>,<Node Name>,<AirLoopHVAC Name>
#Nodes on Supply Air Path,2
   Supply Air Path Node,Inlet Node,1,NODE 76,SYS_3_PSZ SP-STORY 1 EAST LEFT PERIMETER SPACE SYS-3 FLR-1 SCH-A HPLCMT-EAST ZN
   Supply Air Path Node,Outlet Node,2,NODE 78,SYS_3_PSZ SP-STORY 1 EAST LEFT PERIMETER SPACE SYS-3 FLR-1 SCH-A HPLCMT-EAST ZN
 Supply Air Path,3,SYS_3_PSZ SP-STORY 1 EAST RIGHT PERIMETER SPACE SYS-3 FLR-1 SCH-A HPLCMT-EAST ZN NODE 89 SUPPLY PATH,SYS_3_PSZ SP-STORY 1 EAST RIGHT PERIMETER SPACE SYS-3 FLR-1 SCH-A HPLCMT-EAST ZN
   #Components on Supply Air Path,1
   Supply Air Path Component,1,AIRLOOPHVAC:ZONESPLITTER,AIR LOOP HVAC ZONE SPLITTER 5,SYS_3_PSZ SP-STORY 1 EAST RIGHT PERIMETER SPACE SYS-3 FLR-1 SCH-A HPLCMT-EAST ZN
     #Outlet Nodes on Supply Air Path Component,1
     Supply Air Path Component Nodes,1,AIRLOOPHVAC:ZONESPLITTER,AIR LOOP HVAC ZONE SPLITTER 5,NODE 89,NODE 91,SYS_3_PSZ SP-STORY 1 EAST RIGHT PERIMETER SPACE SYS-3 FLR-1 SCH-A HPLCMT-EAST ZN
! <#Nodes on Supply Air Path>,<Number of Nodes>
! <Supply Air Path Node>,<Node Type>,<Node Count>,<Node Name>,<AirLoopHVAC Name>
#Nodes on Supply Air Path,2
   Supply Air Path Node,Inlet Node,1,NODE 89,SYS_3_PSZ SP-STORY 1 EAST RIGHT PERIMETER SPACE SYS-3 FLR-1 SCH-A HPLCMT-EAST ZN
   Supply Air Path Node,Outlet Node,2,NODE 91,SYS_3_PSZ SP-STORY 1 EAST RIGHT PERIMETER SPACE SYS-3 FLR-1 SCH-A HPLCMT-EAST ZN
 Supply Air Path,4,SYS_3_PSZ SP-STORY 1 NORTH LEFT PERIMETER SPACE SYS-3 FLR-1 SCH-A HPLCMT-NORTH ZN NODE 38 SUPPLY PATH,SYS_3_PSZ SP-STORY 1 NORTH LEFT PERIMETER SPACE SYS-3 FLR-1 SCH-A HPLCMT-NORTH ZN
   #Components on Supply Air Path,1
   Supply Air Path Component,1,AIRLOOPHVAC:ZONESPLITTER,AIR LOOP HVAC ZONE SPLITTER 1,SYS_3_PSZ SP-STORY 1 NORTH LEFT PERIMETER SPACE SYS-3 FLR-1 SCH-A HPLCMT-NORTH ZN
     #Outlet Nodes on Supply Air Path Component,1
     Supply Air Path Component Nodes,1,AIRLOOPHVAC:ZONESPLITTER,AIR LOOP HVAC ZONE SPLITTER 1,NODE 38,NODE 40,SYS_3_PSZ SP-STORY 1 NORTH LEFT PERIMETER SPACE SYS-3 FLR-1 SCH-A HPLCMT-NORTH ZN
! <#Nodes on Supply Air Path>,<Number of Nodes>
! <Supply Air Path Node>,<Node Type>,<Node Count>,<Node Name>,<AirLoopHVAC Name>
#Nodes on Supply Air Path,2
   Supply Air Path Node,Inlet Node,1,NODE 38,SYS_3_PSZ SP-STORY 1 NORTH LEFT PERIMETER SPACE SYS-3 FLR-1 SCH-A HPLCMT-NORTH ZN
   Supply Air Path Node,Outlet Node,2,NODE 40,SYS_3_PSZ SP-STORY 1 NORTH LEFT PERIMETER SPACE SYS-3 FLR-1 SCH-A HPLCMT-NORTH ZN
 Supply Air Path,5,SYS_3_PSZ SP-STORY 1 NORTH LOWER PERIMETER SPACE SYS-3 FLR-1 SCH-A HPLCMT-NORTH ZN NODE 50 SUPPLY PATH,SYS_3_PSZ SP-STORY 1 NORTH LOWER PERIMETER SPACE SYS-3 FLR-1 SCH-A HPLCMT-NORTH ZN
   #Components on Supply Air Path,1
   Supply Air Path Component,1,AIRLOOPHVAC:ZONESPLITTER,AIR LOOP HVAC ZONE SPLITTER 2,SYS_3_PSZ SP-STORY 1 NORTH LOWER PERIMETER SPACE SYS-3 FLR-1 SCH-A HPLCMT-NORTH ZN
     #Outlet Nodes on Supply Air Path Component,1
     Supply Air Path Component Nodes,1,AIRLOOPHVAC:ZONESPLITTER,AIR LOOP HVAC ZONE SPLITTER 2,NODE 50,NODE 52,SYS_3_PSZ SP-STORY 1 NORTH LOWER PERIMETER SPACE SYS-3 FLR-1 SCH-A HPLCMT-NORTH ZN
! <#Nodes on Supply Air Path>,<Number of Nodes>
! <Supply Air Path Node>,<Node Type>,<Node Count>,<Node Name>,<AirLoopHVAC Name>
#Nodes on Supply Air Path,2
   Supply Air Path Node,Inlet Node,1,NODE 50,SYS_3_PSZ SP-STORY 1 NORTH LOWER PERIMETER SPACE SYS-3 FLR-1 SCH-A HPLCMT-NORTH ZN
   Supply Air Path Node,Outlet Node,2,NODE 52,SYS_3_PSZ SP-STORY 1 NORTH LOWER PERIMETER SPACE SYS-3 FLR-1 SCH-A HPLCMT-NORTH ZN
 Supply Air Path,6,SYS_3_PSZ SP-STORY 1 NORTH RIGHT PERIMETER SPACE SYS-3 FLR-1 SCH-A HPLCMT-NORTH ZN NODE 63 SUPPLY PATH,SYS_3_PSZ SP-STORY 1 NORTH RIGHT PERIMETER SPACE SYS-3 FLR-1 SCH-A HPLCMT-NORTH ZN
   #Components on Supply Air Path,1
   Supply Air Path Component,1,AIRLOOPHVAC:ZONESPLITTER,AIR LOOP HVAC ZONE SPLITTER 3,SYS_3_PSZ SP-STORY 1 NORTH RIGHT PERIMETER SPACE SYS-3 FLR-1 SCH-A HPLCMT-NORTH ZN
     #Outlet Nodes on Supply Air Path Component,1
     Supply Air Path Component Nodes,1,AIRLOOPHVAC:ZONESPLITTER,AIR LOOP HVAC ZONE SPLITTER 3,NODE 63,NODE 65,SYS_3_PSZ SP-STORY 1 NORTH RIGHT PERIMETER SPACE SYS-3 FLR-1 SCH-A HPLCMT-NORTH ZN
! <#Nodes on Supply Air Path>,<Number of Nodes>
! <Supply Air Path Node>,<Node Type>,<Node Count>,<Node Name>,<AirLoopHVAC Name>
#Nodes on Supply Air Path,2
   Supply Air Path Node,Inlet Node,1,NODE 63,SYS_3_PSZ SP-STORY 1 NORTH RIGHT PERIMETER SPACE SYS-3 FLR-1 SCH-A HPLCMT-NORTH ZN
   Supply Air Path Node,Outlet Node,2,NODE 65,SYS_3_PSZ SP-STORY 1 NORTH RIGHT PERIMETER SPACE SYS-3 FLR-1 SCH-A HPLCMT-NORTH ZN
 Supply Air Path,7,SYS_3_PSZ SP-STORY 1 SOUTH CORE SPACE SYS-3 FLR-1 SCH-A HPLCMT-CORE ZN NODE 154 SUPPLY PATH,SYS_3_PSZ SP-STORY 1 SOUTH CORE SPACE SYS-3 FLR-1 SCH-A HPLCMT-CORE ZN
   #Components on Supply Air Path,1
   Supply Air Path Component,1,AIRLOOPHVAC:ZONESPLITTER,AIR LOOP HVAC ZONE SPLITTER 10,SYS_3_PSZ SP-STORY 1 SOUTH CORE SPACE SYS-3 FLR-1 SCH-A HPLCMT-CORE ZN
     #Outlet Nodes on Supply Air Path Component,1
     Supply Air Path Component Nodes,1,AIRLOOPHVAC:ZONESPLITTER,AIR LOOP HVAC ZONE SPLITTER 10,NODE 154,NODE 156,SYS_3_PSZ SP-STORY 1 SOUTH CORE SPACE SYS-3 FLR-1 SCH-A HPLCMT-CORE ZN
! <#Nodes on Supply Air Path>,<Number of Nodes>
! <Supply Air Path Node>,<Node Type>,<Node Count>,<Node Name>,<AirLoopHVAC Name>
#Nodes on Supply Air Path,2
   Supply Air Path Node,Inlet Node,1,NODE 154,SYS_3_PSZ SP-STORY 1 SOUTH CORE SPACE SYS-3 FLR-1 SCH-A HPLCMT-CORE ZN
   Supply Air Path Node,Outlet Node,2,NODE 156,SYS_3_PSZ SP-STORY 1 SOUTH CORE SPACE SYS-3 FLR-1 SCH-A HPLCMT-CORE ZN
 Supply Air Path,8,SYS_3_PSZ SP-STORY 1 SOUTH LOWER PERIMETER SPACE SYS-3 FLR-1 SCH-A HPLCMT-SOUTH ZN NODE 128 SUPPLY PATH,SYS_3_PSZ SP-STORY 1 SOUTH LOWER PERIMETER SPACE SYS-3 FLR-1 SCH-A HPLCMT-SOUTH ZN
   #Components on Supply Air Path,1
   Supply Air Path Component,1,AIRLOOPHVAC:ZONESPLITTER,AIR LOOP HVAC ZONE SPLITTER 8,SYS_3_PSZ SP-STORY 1 SOUTH LOWER PERIMETER SPACE SYS-3 FLR-1 SCH-A HPLCMT-SOUTH ZN
     #Outlet Nodes on Supply Air Path Component,1
     Supply Air Path Component Nodes,1,AIRLOOPHVAC:ZONESPLITTER,AIR LOOP HVAC ZONE SPLITTER 8,NODE 128,NODE 130,SYS_3_PSZ SP-STORY 1 SOUTH LOWER PERIMETER SPACE SYS-3 FLR-1 SCH-A HPLCMT-SOUTH ZN
! <#Nodes on Supply Air Path>,<Number of Nodes>
! <Supply Air Path Node>,<Node Type>,<Node Count>,<Node Name>,<AirLoopHVAC Name>
#Nodes on Supply Air Path,2
   Supply Air Path Node,Inlet Node,1,NODE 128,SYS_3_PSZ SP-STORY 1 SOUTH LOWER PERIMETER SPACE SYS-3 FLR-1 SCH-A HPLCMT-SOUTH ZN
   Supply Air Path Node,Outlet Node,2,NODE 130,SYS_3_PSZ SP-STORY 1 SOUTH LOWER PERIMETER SPACE SYS-3 FLR-1 SCH-A HPLCMT-SOUTH ZN
 Supply Air Path,9,SYS_3_PSZ SP-STORY 1 WEST CORE SPACE SYS-3 FLR-1 SCH-A HPLCMT-CORE ZN NODE 167 SUPPLY PATH,SYS_3_PSZ SP-STORY 1 WEST CORE SPACE SYS-3 FLR-1 SCH-A HPLCMT-CORE ZN
   #Components on Supply Air Path,1
   Supply Air Path Component,1,AIRLOOPHVAC:ZONESPLITTER,AIR LOOP HVAC ZONE SPLITTER 11,SYS_3_PSZ SP-STORY 1 WEST CORE SPACE SYS-3 FLR-1 SCH-A HPLCMT-CORE ZN
     #Outlet Nodes on Supply Air Path Component,1
     Supply Air Path Component Nodes,1,AIRLOOPHVAC:ZONESPLITTER,AIR LOOP HVAC ZONE SPLITTER 11,NODE 167,NODE 169,SYS_3_PSZ SP-STORY 1 WEST CORE SPACE SYS-3 FLR-1 SCH-A HPLCMT-CORE ZN
! <#Nodes on Supply Air Path>,<Number of Nodes>
! <Supply Air Path Node>,<Node Type>,<Node Count>,<Node Name>,<AirLoopHVAC Name>
#Nodes on Supply Air Path,2
   Supply Air Path Node,Inlet Node,1,NODE 167,SYS_3_PSZ SP-STORY 1 WEST CORE SPACE SYS-3 FLR-1 SCH-A HPLCMT-CORE ZN
   Supply Air Path Node,Outlet Node,2,NODE 169,SYS_3_PSZ SP-STORY 1 WEST CORE SPACE SYS-3 FLR-1 SCH-A HPLCMT-CORE ZN
 Supply Air Path,10,SYS_3_PSZ SP-STORY 1 WEST LEFT PERIMETER SPACE SYS-3 FLR-1 SCH-A HPLCMT-WEST ZN NODE 102 SUPPLY PATH,SYS_3_PSZ SP-STORY 1 WEST LEFT PERIMETER SPACE SYS-3 FLR-1 SCH-A HPLCMT-WEST ZN
   #Components on Supply Air Path,1
   Supply Air Path Component,1,AIRLOOPHVAC:ZONESPLITTER,AIR LOOP HVAC ZONE SPLITTER 6,SYS_3_PSZ SP-STORY 1 WEST LEFT PERIMETER SPACE SYS-3 FLR-1 SCH-A HPLCMT-WEST ZN
     #Outlet Nodes on Supply Air Path Component,1
     Supply Air Path Component Nodes,1,AIRLOOPHVAC:ZONESPLITTER,AIR LOOP HVAC ZONE SPLITTER 6,NODE 102,NODE 104,SYS_3_PSZ SP-STORY 1 WEST LEFT PERIMETER SPACE SYS-3 FLR-1 SCH-A HPLCMT-WEST ZN
! <#Nodes on Supply Air Path>,<Number of Nodes>
! <Supply Air Path Node>,<Node Type>,<Node Count>,<Node Name>,<AirLoopHVAC Name>
#Nodes on Supply Air Path,2
   Supply Air Path Node,Inlet Node,1,NODE 102,SYS_3_PSZ SP-STORY 1 WEST LEFT PERIMETER SPACE SYS-3 FLR-1 SCH-A HPLCMT-WEST ZN
   Supply Air Path Node,Outlet Node,2,NODE 104,SYS_3_PSZ SP-STORY 1 WEST LEFT PERIMETER SPACE SYS-3 FLR-1 SCH-A HPLCMT-WEST ZN
 Supply Air Path,11,SYS_3_PSZ SP-STORY 1 WEST RIGHT PERIMETER SPACE SYS-3 FLR-1 SCH-A HPLCMT-WEST ZN NODE 115 SUPPLY PATH,SYS_3_PSZ SP-STORY 1 WEST RIGHT PERIMETER SPACE SYS-3 FLR-1 SCH-A HPLCMT-WEST ZN
   #Components on Supply Air Path,1
   Supply Air Path Component,1,AIRLOOPHVAC:ZONESPLITTER,AIR LOOP HVAC ZONE SPLITTER 7,SYS_3_PSZ SP-STORY 1 WEST RIGHT PERIMETER SPACE SYS-3 FLR-1 SCH-A HPLCMT-WEST ZN
     #Outlet Nodes on Supply Air Path Component,1
     Supply Air Path Component Nodes,1,AIRLOOPHVAC:ZONESPLITTER,AIR LOOP HVAC ZONE SPLITTER 7,NODE 115,NODE 117,SYS_3_PSZ SP-STORY 1 WEST RIGHT PERIMETER SPACE SYS-3 FLR-1 SCH-A HPLCMT-WEST ZN
! <#Nodes on Supply Air Path>,<Number of Nodes>
! <Supply Air Path Node>,<Node Type>,<Node Count>,<Node Name>,<AirLoopHVAC Name>
#Nodes on Supply Air Path,2
   Supply Air Path Node,Inlet Node,1,NODE 115,SYS_3_PSZ SP-STORY 1 WEST RIGHT PERIMETER SPACE SYS-3 FLR-1 SCH-A HPLCMT-WEST ZN
   Supply Air Path Node,Outlet Node,2,NODE 117,SYS_3_PSZ SP-STORY 1 WEST RIGHT PERIMETER SPACE SYS-3 FLR-1 SCH-A HPLCMT-WEST ZN
 Supply Air Path,12,SYS_3_PSZ SP-STORY 2 EAST CORE SPACE SYS-3 FLR-2 SCH-A HPLCMT-CORE ZN NODE 284 SUPPLY PATH,SYS_3_PSZ SP-STORY 2 EAST CORE SPACE SYS-3 FLR-2 SCH-A HPLCMT-CORE ZN
   #Components on Supply Air Path,1
   Supply Air Path Component,1,AIRLOOPHVAC:ZONESPLITTER,AIR LOOP HVAC ZONE SPLITTER 20,SYS_3_PSZ SP-STORY 2 EAST CORE SPACE SYS-3 FLR-2 SCH-A HPLCMT-CORE ZN
     #Outlet Nodes on Supply Air Path Component,1
     Supply Air Path Component Nodes,1,AIRLOOPHVAC:ZONESPLITTER,AIR LOOP HVAC ZONE SPLITTER 20,NODE 284,NODE 286,SYS_3_PSZ SP-STORY 2 EAST CORE SPACE SYS-3 FLR-2 SCH-A HPLCMT-CORE ZN
! <#Nodes on Supply Air Path>,<Number of Nodes>
! <Supply Air Path Node>,<Node Type>,<Node Count>,<Node Name>,<AirLoopHVAC Name>
#Nodes on Supply Air Path,2
   Supply Air Path Node,Inlet Node,1,NODE 284,SYS_3_PSZ SP-STORY 2 EAST CORE SPACE SYS-3 FLR-2 SCH-A HPLCMT-CORE ZN
   Supply Air Path Node,Outlet Node,2,NODE 286,SYS_3_PSZ SP-STORY 2 EAST CORE SPACE SYS-3 FLR-2 SCH-A HPLCMT-CORE ZN
 Supply Air Path,13,SYS_3_PSZ SP-STORY 2 EAST LEFT PERIMETER SPACE SYS-3 FLR-2 SCH-A HPLCMT-EAST ZN NODE 219 SUPPLY PATH,SYS_3_PSZ SP-STORY 2 EAST LEFT PERIMETER SPACE SYS-3 FLR-2 SCH-A HPLCMT-EAST ZN
   #Components on Supply Air Path,1
   Supply Air Path Component,1,AIRLOOPHVAC:ZONESPLITTER,AIR LOOP HVAC ZONE SPLITTER 15,SYS_3_PSZ SP-STORY 2 EAST LEFT PERIMETER SPACE SYS-3 FLR-2 SCH-A HPLCMT-EAST ZN
     #Outlet Nodes on Supply Air Path Component,1
     Supply Air Path Component Nodes,1,AIRLOOPHVAC:ZONESPLITTER,AIR LOOP HVAC ZONE SPLITTER 15,NODE 219,NODE 221,SYS_3_PSZ SP-STORY 2 EAST LEFT PERIMETER SPACE SYS-3 FLR-2 SCH-A HPLCMT-EAST ZN
! <#Nodes on Supply Air Path>,<Number of Nodes>
! <Supply Air Path Node>,<Node Type>,<Node Count>,<Node Name>,<AirLoopHVAC Name>
#Nodes on Supply Air Path,2
   Supply Air Path Node,Inlet Node,1,NODE 219,SYS_3_PSZ SP-STORY 2 EAST LEFT PERIMETER SPACE SYS-3 FLR-2 SCH-A HPLCMT-EAST ZN
   Supply Air Path Node,Outlet Node,2,NODE 221,SYS_3_PSZ SP-STORY 2 EAST LEFT PERIMETER SPACE SYS-3 FLR-2 SCH-A HPLCMT-EAST ZN
 Supply Air Path,14,SYS_3_PSZ SP-STORY 2 EAST RIGHT PERIMETER SPACE SYS-3 FLR-2 SCH-A HPLCMT-EAST ZN NODE 232 SUPPLY PATH,SYS_3_PSZ SP-STORY 2 EAST RIGHT PERIMETER SPACE SYS-3 FLR-2 SCH-A HPLCMT-EAST ZN
   #Components on Supply Air Path,1
   Supply Air Path Component,1,AIRLOOPHVAC:ZONESPLITTER,AIR LOOP HVAC ZONE SPLITTER 16,SYS_3_PSZ SP-STORY 2 EAST RIGHT PERIMETER SPACE SYS-3 FLR-2 SCH-A HPLCMT-EAST ZN
     #Outlet Nodes on Supply Air Path Component,1
     Supply Air Path Component Nodes,1,AIRLOOPHVAC:ZONESPLITTER,AIR LOOP HVAC ZONE SPLITTER 16,NODE 232,NODE 234,SYS_3_PSZ SP-STORY 2 EAST RIGHT PERIMETER SPACE SYS-3 FLR-2 SCH-A HPLCMT-EAST ZN
! <#Nodes on Supply Air Path>,<Number of Nodes>
! <Supply Air Path Node>,<Node Type>,<Node Count>,<Node Name>,<AirLoopHVAC Name>
#Nodes on Supply Air Path,2
   Supply Air Path Node,Inlet Node,1,NODE 232,SYS_3_PSZ SP-STORY 2 EAST RIGHT PERIMETER SPACE SYS-3 FLR-2 SCH-A HPLCMT-EAST ZN
   Supply Air Path Node,Outlet Node,2,NODE 234,SYS_3_PSZ SP-STORY 2 EAST RIGHT PERIMETER SPACE SYS-3 FLR-2 SCH-A HPLCMT-EAST ZN
 Supply Air Path,15,SYS_3_PSZ SP-STORY 2 NORTH LEFT PERIMETER SPACE SYS-3 FLR-2 SCH-A HPLCMT-NORTH ZN NODE 180 SUPPLY PATH,SYS_3_PSZ SP-STORY 2 NORTH LEFT PERIMETER SPACE SYS-3 FLR-2 SCH-A HPLCMT-NORTH ZN
   #Components on Supply Air Path,1
   Supply Air Path Component,1,AIRLOOPHVAC:ZONESPLITTER,AIR LOOP HVAC ZONE SPLITTER 12,SYS_3_PSZ SP-STORY 2 NORTH LEFT PERIMETER SPACE SYS-3 FLR-2 SCH-A HPLCMT-NORTH ZN
     #Outlet Nodes on Supply Air Path Component,1
     Supply Air Path Component Nodes,1,AIRLOOPHVAC:ZONESPLITTER,AIR LOOP HVAC ZONE SPLITTER 12,NODE 180,NODE 182,SYS_3_PSZ SP-STORY 2 NORTH LEFT PERIMETER SPACE SYS-3 FLR-2 SCH-A HPLCMT-NORTH ZN
! <#Nodes on Supply Air Path>,<Number of Nodes>
! <Supply Air Path Node>,<Node Type>,<Node Count>,<Node Name>,<AirLoopHVAC Name>
#Nodes on Supply Air Path,2
   Supply Air Path Node,Inlet Node,1,NODE 180,SYS_3_PSZ SP-STORY 2 NORTH LEFT PERIMETER SPACE SYS-3 FLR-2 SCH-A HPLCMT-NORTH ZN
   Supply Air Path Node,Outlet Node,2,NODE 182,SYS_3_PSZ SP-STORY 2 NORTH LEFT PERIMETER SPACE SYS-3 FLR-2 SCH-A HPLCMT-NORTH ZN
 Supply Air Path,16,SYS_3_PSZ SP-STORY 2 NORTH LOWER PERIMETER SPACE SYS-3 FLR-2 SCH-A HPLCMT-NORTH ZN NODE 193 SUPPLY PATH,SYS_3_PSZ SP-STORY 2 NORTH LOWER PERIMETER SPACE SYS-3 FLR-2 SCH-A HPLCMT-NORTH ZN
   #Components on Supply Air Path,1
   Supply Air Path Component,1,AIRLOOPHVAC:ZONESPLITTER,AIR LOOP HVAC ZONE SPLITTER 13,SYS_3_PSZ SP-STORY 2 NORTH LOWER PERIMETER SPACE SYS-3 FLR-2 SCH-A HPLCMT-NORTH ZN
     #Outlet Nodes on Supply Air Path Component,1
     Supply Air Path Component Nodes,1,AIRLOOPHVAC:ZONESPLITTER,AIR LOOP HVAC ZONE SPLITTER 13,NODE 193,NODE 195,SYS_3_PSZ SP-STORY 2 NORTH LOWER PERIMETER SPACE SYS-3 FLR-2 SCH-A HPLCMT-NORTH ZN
! <#Nodes on Supply Air Path>,<Number of Nodes>
! <Supply Air Path Node>,<Node Type>,<Node Count>,<Node Name>,<AirLoopHVAC Name>
#Nodes on Supply Air Path,2
   Supply Air Path Node,Inlet Node,1,NODE 193,SYS_3_PSZ SP-STORY 2 NORTH LOWER PERIMETER SPACE SYS-3 FLR-2 SCH-A HPLCMT-NORTH ZN
   Supply Air Path Node,Outlet Node,2,NODE 195,SYS_3_PSZ SP-STORY 2 NORTH LOWER PERIMETER SPACE SYS-3 FLR-2 SCH-A HPLCMT-NORTH ZN
 Supply Air Path,17,SYS_3_PSZ SP-STORY 2 NORTH RIGHT PERIMETER SPACE SYS-3 FLR-2 SCH-A HPLCMT-NORTH ZN NODE 206 SUPPLY PATH,SYS_3_PSZ SP-STORY 2 NORTH RIGHT PERIMETER SPACE SYS-3 FLR-2 SCH-A HPLCMT-NORTH ZN
   #Components on Supply Air Path,1
   Supply Air Path Component,1,AIRLOOPHVAC:ZONESPLITTER,AIR LOOP HVAC ZONE SPLITTER 14,SYS_3_PSZ SP-STORY 2 NORTH RIGHT PERIMETER SPACE SYS-3 FLR-2 SCH-A HPLCMT-NORTH ZN
     #Outlet Nodes on Supply Air Path Component,1
     Supply Air Path Component Nodes,1,AIRLOOPHVAC:ZONESPLITTER,AIR LOOP HVAC ZONE SPLITTER 14,NODE 206,NODE 208,SYS_3_PSZ SP-STORY 2 NORTH RIGHT PERIMETER SPACE SYS-3 FLR-2 SCH-A HPLCMT-NORTH ZN
! <#Nodes on Supply Air Path>,<Number of Nodes>
! <Supply Air Path Node>,<Node Type>,<Node Count>,<Node Name>,<AirLoopHVAC Name>
#Nodes on Supply Air Path,2
   Supply Air Path Node,Inlet Node,1,NODE 206,SYS_3_PSZ SP-STORY 2 NORTH RIGHT PERIMETER SPACE SYS-3 FLR-2 SCH-A HPLCMT-NORTH ZN
   Supply Air Path Node,Outlet Node,2,NODE 208,SYS_3_PSZ SP-STORY 2 NORTH RIGHT PERIMETER SPACE SYS-3 FLR-2 SCH-A HPLCMT-NORTH ZN
 Supply Air Path,18,SYS_3_PSZ SP-STORY 2 SOUTH CORE SPACE SYS-3 FLR-2 SCH-A HPLCMT-CORE ZN NODE 297 SUPPLY PATH,SYS_3_PSZ SP-STORY 2 SOUTH CORE SPACE SYS-3 FLR-2 SCH-A HPLCMT-CORE ZN
   #Components on Supply Air Path,1
   Supply Air Path Component,1,AIRLOOPHVAC:ZONESPLITTER,AIR LOOP HVAC ZONE SPLITTER 21,SYS_3_PSZ SP-STORY 2 SOUTH CORE SPACE SYS-3 FLR-2 SCH-A HPLCMT-CORE ZN
     #Outlet Nodes on Supply Air Path Component,1
     Supply Air Path Component Nodes,1,AIRLOOPHVAC:ZONESPLITTER,AIR LOOP HVAC ZONE SPLITTER 21,NODE 297,NODE 299,SYS_3_PSZ SP-STORY 2 SOUTH CORE SPACE SYS-3 FLR-2 SCH-A HPLCMT-CORE ZN
! <#Nodes on Supply Air Path>,<Number of Nodes>
! <Supply Air Path Node>,<Node Type>,<Node Count>,<Node Name>,<AirLoopHVAC Name>
#Nodes on Supply Air Path,2
   Supply Air Path Node,Inlet Node,1,NODE 297,SYS_3_PSZ SP-STORY 2 SOUTH CORE SPACE SYS-3 FLR-2 SCH-A HPLCMT-CORE ZN
   Supply Air Path Node,Outlet Node,2,NODE 299,SYS_3_PSZ SP-STORY 2 SOUTH CORE SPACE SYS-3 FLR-2 SCH-A HPLCMT-CORE ZN
 Supply Air Path,19,SYS_3_PSZ SP-STORY 2 SOUTH LOWER PERIMETER SPACE SYS-3 FLR-2 SCH-A HPLCMT-SOUTH ZN NODE 271 SUPPLY PATH,SYS_3_PSZ SP-STORY 2 SOUTH LOWER PERIMETER SPACE SYS-3 FLR-2 SCH-A HPLCMT-SOUTH ZN
   #Components on Supply Air Path,1
   Supply Air Path Component,1,AIRLOOPHVAC:ZONESPLITTER,AIR LOOP HVAC ZONE SPLITTER 19,SYS_3_PSZ SP-STORY 2 SOUTH LOWER PERIMETER SPACE SYS-3 FLR-2 SCH-A HPLCMT-SOUTH ZN
     #Outlet Nodes on Supply Air Path Component,1
     Supply Air Path Component Nodes,1,AIRLOOPHVAC:ZONESPLITTER,AIR LOOP HVAC ZONE SPLITTER 19,NODE 271,NODE 273,SYS_3_PSZ SP-STORY 2 SOUTH LOWER PERIMETER SPACE SYS-3 FLR-2 SCH-A HPLCMT-SOUTH ZN
! <#Nodes on Supply Air Path>,<Number of Nodes>
! <Supply Air Path Node>,<Node Type>,<Node Count>,<Node Name>,<AirLoopHVAC Name>
#Nodes on Supply Air Path,2
   Supply Air Path Node,Inlet Node,1,NODE 271,SYS_3_PSZ SP-STORY 2 SOUTH LOWER PERIMETER SPACE SYS-3 FLR-2 SCH-A HPLCMT-SOUTH ZN
   Supply Air Path Node,Outlet Node,2,NODE 273,SYS_3_PSZ SP-STORY 2 SOUTH LOWER PERIMETER SPACE SYS-3 FLR-2 SCH-A HPLCMT-SOUTH ZN
 Supply Air Path,20,SYS_3_PSZ SP-STORY 2 WEST CORE SPACE SYS-3 FLR-2 SCH-A HPLCMT-CORE ZN NODE 310 SUPPLY PATH,SYS_3_PSZ SP-STORY 2 WEST CORE SPACE SYS-3 FLR-2 SCH-A HPLCMT-CORE ZN
   #Components on Supply Air Path,1
   Supply Air Path Component,1,AIRLOOPHVAC:ZONESPLITTER,AIR LOOP HVAC ZONE SPLITTER 22,SYS_3_PSZ SP-STORY 2 WEST CORE SPACE SYS-3 FLR-2 SCH-A HPLCMT-CORE ZN
     #Outlet Nodes on Supply Air Path Component,1
     Supply Air Path Component Nodes,1,AIRLOOPHVAC:ZONESPLITTER,AIR LOOP HVAC ZONE SPLITTER 22,NODE 310,NODE 312,SYS_3_PSZ SP-STORY 2 WEST CORE SPACE SYS-3 FLR-2 SCH-A HPLCMT-CORE ZN
! <#Nodes on Supply Air Path>,<Number of Nodes>
! <Supply Air Path Node>,<Node Type>,<Node Count>,<Node Name>,<AirLoopHVAC Name>
#Nodes on Supply Air Path,2
   Supply Air Path Node,Inlet Node,1,NODE 310,SYS_3_PSZ SP-STORY 2 WEST CORE SPACE SYS-3 FLR-2 SCH-A HPLCMT-CORE ZN
   Supply Air Path Node,Outlet Node,2,NODE 312,SYS_3_PSZ SP-STORY 2 WEST CORE SPACE SYS-3 FLR-2 SCH-A HPLCMT-CORE ZN
 Supply Air Path,21,SYS_3_PSZ SP-STORY 2 WEST LEFT PERIMETER SPACE SYS-3 FLR-2 SCH-A HPLCMT-WEST ZN NODE 245 SUPPLY PATH,SYS_3_PSZ SP-STORY 2 WEST LEFT PERIMETER SPACE SYS-3 FLR-2 SCH-A HPLCMT-WEST ZN
   #Components on Supply Air Path,1
   Supply Air Path Component,1,AIRLOOPHVAC:ZONESPLITTER,AIR LOOP HVAC ZONE SPLITTER 17,SYS_3_PSZ SP-STORY 2 WEST LEFT PERIMETER SPACE SYS-3 FLR-2 SCH-A HPLCMT-WEST ZN
     #Outlet Nodes on Supply Air Path Component,1
     Supply Air Path Component Nodes,1,AIRLOOPHVAC:ZONESPLITTER,AIR LOOP HVAC ZONE SPLITTER 17,NODE 245,NODE 247,SYS_3_PSZ SP-STORY 2 WEST LEFT PERIMETER SPACE SYS-3 FLR-2 SCH-A HPLCMT-WEST ZN
! <#Nodes on Supply Air Path>,<Number of Nodes>
! <Supply Air Path Node>,<Node Type>,<Node Count>,<Node Name>,<AirLoopHVAC Name>
#Nodes on Supply Air Path,2
   Supply Air Path Node,Inlet Node,1,NODE 245,SYS_3_PSZ SP-STORY 2 WEST LEFT PERIMETER SPACE SYS-3 FLR-2 SCH-A HPLCMT-WEST ZN
   Supply Air Path Node,Outlet Node,2,NODE 247,SYS_3_PSZ SP-STORY 2 WEST LEFT PERIMETER SPACE SYS-3 FLR-2 SCH-A HPLCMT-WEST ZN
 Supply Air Path,22,SYS_3_PSZ SP-STORY 2 WEST RIGHT PERIMETER SPACE SYS-3 FLR-2 SCH-A HPLCMT-WEST ZN NODE 258 SUPPLY PATH,SYS_3_PSZ SP-STORY 2 WEST RIGHT PERIMETER SPACE SYS-3 FLR-2 SCH-A HPLCMT-WEST ZN
   #Components on Supply Air Path,1
   Supply Air Path Component,1,AIRLOOPHVAC:ZONESPLITTER,AIR LOOP HVAC ZONE SPLITTER 18,SYS_3_PSZ SP-STORY 2 WEST RIGHT PERIMETER SPACE SYS-3 FLR-2 SCH-A HPLCMT-WEST ZN
     #Outlet Nodes on Supply Air Path Component,1
     Supply Air Path Component Nodes,1,AIRLOOPHVAC:ZONESPLITTER,AIR LOOP HVAC ZONE SPLITTER 18,NODE 258,NODE 260,SYS_3_PSZ SP-STORY 2 WEST RIGHT PERIMETER SPACE SYS-3 FLR-2 SCH-A HPLCMT-WEST ZN
! <#Nodes on Supply Air Path>,<Number of Nodes>
! <Supply Air Path Node>,<Node Type>,<Node Count>,<Node Name>,<AirLoopHVAC Name>
#Nodes on Supply Air Path,2
   Supply Air Path Node,Inlet Node,1,NODE 258,SYS_3_PSZ SP-STORY 2 WEST RIGHT PERIMETER SPACE SYS-3 FLR-2 SCH-A HPLCMT-WEST ZN
   Supply Air Path Node,Outlet Node,2,NODE 260,SYS_3_PSZ SP-STORY 2 WEST RIGHT PERIMETER SPACE SYS-3 FLR-2 SCH-A HPLCMT-WEST ZN
! ===============================================================
! <#Return Air Paths>,<Number of Return Air Paths>
 #Return Air Paths,22
! <Return Air Path>,<Return Air Path Count>,<Return Air Path Name>,<AirLoopHVAC Name>
! <#Components on Return Air Path>,<Number of Components>
! <Return Air Path Component>,<Component Count>,<Component Type>,<Component Name>,<AirLoopHVAC Name>
! <#Inlet Nodes on Return Air Path Component>,<Number of Nodes>
! <Return Air Path Component Nodes>,<Node Count>,<Component Type>,<Component Name>,<Inlet Node Name>,<Outlet Node Name>,<AirLoopHVAC Name>
 Return Air Path,1,SYS_3_PSZ SP-STORY 1 EAST CORE SPACE SYS-3 FLR-1 SCH-A HPLCMT-CORE ZN RETURN PATH,SYS_3_PSZ SP-STORY 1 EAST CORE SPACE SYS-3 FLR-1 SCH-A HPLCMT-CORE ZN
   #Components on Return Air Path,1
   Return Air Path Component,1,AIRLOOPHVAC:ZONEMIXER,AIR LOOP HVAC ZONE MIXER 9,SYS_3_PSZ SP-STORY 1 EAST CORE SPACE SYS-3 FLR-1 SCH-A HPLCMT-CORE ZN
     #Inlet Nodes on Return Air Path Component,1
     Return Air Path Component Nodes,1,AIRLOOPHVAC:ZONEMIXER,AIR LOOP HVAC ZONE MIXER 9,NODE 149,NODE 142,SYS_3_PSZ SP-STORY 1 EAST CORE SPACE SYS-3 FLR-1 SCH-A HPLCMT-CORE ZN
! <#Nodes on Return Air Path>,<Number of Nodes>
! <Return Air Path Node>,<Node Type>,<Node Count>,<Node Name>,<AirLoopHVAC Name>
   #Nodes on Return Air Path,2
   Return Air Path Node,Outlet Node,1,NODE 142,SYS_3_PSZ SP-STORY 1 EAST CORE SPACE SYS-3 FLR-1 SCH-A HPLCMT-CORE ZN
   Return Air Path Node,Inlet Node,2,NODE 149,SYS_3_PSZ SP-STORY 1 EAST CORE SPACE SYS-3 FLR-1 SCH-A HPLCMT-CORE ZN
 Return Air Path,2,SYS_3_PSZ SP-STORY 1 EAST LEFT PERIMETER SPACE SYS-3 FLR-1 SCH-A HPLCMT-EAST ZN RETURN PATH,SYS_3_PSZ SP-STORY 1 EAST LEFT PERIMETER SPACE SYS-3 FLR-1 SCH-A HPLCMT-EAST ZN
   #Components on Return Air Path,1
   Return Air Path Component,1,AIRLOOPHVAC:ZONEMIXER,AIR LOOP HVAC ZONE MIXER 4,SYS_3_PSZ SP-STORY 1 EAST LEFT PERIMETER SPACE SYS-3 FLR-1 SCH-A HPLCMT-EAST ZN
     #Inlet Nodes on Return Air Path Component,1
     Return Air Path Component Nodes,1,AIRLOOPHVAC:ZONEMIXER,AIR LOOP HVAC ZONE MIXER 4,NODE 84,NODE 77,SYS_3_PSZ SP-STORY 1 EAST LEFT PERIMETER SPACE SYS-3 FLR-1 SCH-A HPLCMT-EAST ZN
! <#Nodes on Return Air Path>,<Number of Nodes>
! <Return Air Path Node>,<Node Type>,<Node Count>,<Node Name>,<AirLoopHVAC Name>
   #Nodes on Return Air Path,2
   Return Air Path Node,Outlet Node,1,NODE 77,SYS_3_PSZ SP-STORY 1 EAST LEFT PERIMETER SPACE SYS-3 FLR-1 SCH-A HPLCMT-EAST ZN
   Return Air Path Node,Inlet Node,2,NODE 84,SYS_3_PSZ SP-STORY 1 EAST LEFT PERIMETER SPACE SYS-3 FLR-1 SCH-A HPLCMT-EAST ZN
 Return Air Path,3,SYS_3_PSZ SP-STORY 1 EAST RIGHT PERIMETER SPACE SYS-3 FLR-1 SCH-A HPLCMT-EAST ZN RETURN PATH,SYS_3_PSZ SP-STORY 1 EAST RIGHT PERIMETER SPACE SYS-3 FLR-1 SCH-A HPLCMT-EAST ZN
   #Components on Return Air Path,1
   Return Air Path Component,1,AIRLOOPHVAC:ZONEMIXER,AIR LOOP HVAC ZONE MIXER 5,SYS_3_PSZ SP-STORY 1 EAST RIGHT PERIMETER SPACE SYS-3 FLR-1 SCH-A HPLCMT-EAST ZN
     #Inlet Nodes on Return Air Path Component,1
     Return Air Path Component Nodes,1,AIRLOOPHVAC:ZONEMIXER,AIR LOOP HVAC ZONE MIXER 5,NODE 97,NODE 90,SYS_3_PSZ SP-STORY 1 EAST RIGHT PERIMETER SPACE SYS-3 FLR-1 SCH-A HPLCMT-EAST ZN
! <#Nodes on Return Air Path>,<Number of Nodes>
! <Return Air Path Node>,<Node Type>,<Node Count>,<Node Name>,<AirLoopHVAC Name>
   #Nodes on Return Air Path,2
   Return Air Path Node,Outlet Node,1,NODE 90,SYS_3_PSZ SP-STORY 1 EAST RIGHT PERIMETER SPACE SYS-3 FLR-1 SCH-A HPLCMT-EAST ZN
   Return Air Path Node,Inlet Node,2,NODE 97,SYS_3_PSZ SP-STORY 1 EAST RIGHT PERIMETER SPACE SYS-3 FLR-1 SCH-A HPLCMT-EAST ZN
 Return Air Path,4,SYS_3_PSZ SP-STORY 1 NORTH LEFT PERIMETER SPACE SYS-3 FLR-1 SCH-A HPLCMT-NORTH ZN RETURN PATH,SYS_3_PSZ SP-STORY 1 NORTH LEFT PERIMETER SPACE SYS-3 FLR-1 SCH-A HPLCMT-NORTH ZN
   #Components on Return Air Path,1
   Return Air Path Component,1,AIRLOOPHVAC:ZONEMIXER,AIR LOOP HVAC ZONE MIXER 1,SYS_3_PSZ SP-STORY 1 NORTH LEFT PERIMETER SPACE SYS-3 FLR-1 SCH-A HPLCMT-NORTH ZN
     #Inlet Nodes on Return Air Path Component,1
     Return Air Path Component Nodes,1,AIRLOOPHVAC:ZONEMIXER,AIR LOOP HVAC ZONE MIXER 1,NODE 46,NODE 39,SYS_3_PSZ SP-STORY 1 NORTH LEFT PERIMETER SPACE SYS-3 FLR-1 SCH-A HPLCMT-NORTH ZN
! <#Nodes on Return Air Path>,<Number of Nodes>
! <Return Air Path Node>,<Node Type>,<Node Count>,<Node Name>,<AirLoopHVAC Name>
   #Nodes on Return Air Path,2
   Return Air Path Node,Outlet Node,1,NODE 39,SYS_3_PSZ SP-STORY 1 NORTH LEFT PERIMETER SPACE SYS-3 FLR-1 SCH-A HPLCMT-NORTH ZN
   Return Air Path Node,Inlet Node,2,NODE 46,SYS_3_PSZ SP-STORY 1 NORTH LEFT PERIMETER SPACE SYS-3 FLR-1 SCH-A HPLCMT-NORTH ZN
 Return Air Path,5,SYS_3_PSZ SP-STORY 1 NORTH LOWER PERIMETER SPACE SYS-3 FLR-1 SCH-A HPLCMT-NORTH ZN RETURN PATH,SYS_3_PSZ SP-STORY 1 NORTH LOWER PERIMETER SPACE SYS-3 FLR-1 SCH-A HPLCMT-NORTH ZN
   #Components on Return Air Path,1
   Return Air Path Component,1,AIRLOOPHVAC:ZONEMIXER,AIR LOOP HVAC ZONE MIXER 2,SYS_3_PSZ SP-STORY 1 NORTH LOWER PERIMETER SPACE SYS-3 FLR-1 SCH-A HPLCMT-NORTH ZN
     #Inlet Nodes on Return Air Path Component,1
     Return Air Path Component Nodes,1,AIRLOOPHVAC:ZONEMIXER,AIR LOOP HVAC ZONE MIXER 2,NODE 58,NODE 51,SYS_3_PSZ SP-STORY 1 NORTH LOWER PERIMETER SPACE SYS-3 FLR-1 SCH-A HPLCMT-NORTH ZN
! <#Nodes on Return Air Path>,<Number of Nodes>
! <Return Air Path Node>,<Node Type>,<Node Count>,<Node Name>,<AirLoopHVAC Name>
   #Nodes on Return Air Path,2
   Return Air Path Node,Outlet Node,1,NODE 51,SYS_3_PSZ SP-STORY 1 NORTH LOWER PERIMETER SPACE SYS-3 FLR-1 SCH-A HPLCMT-NORTH ZN
   Return Air Path Node,Inlet Node,2,NODE 58,SYS_3_PSZ SP-STORY 1 NORTH LOWER PERIMETER SPACE SYS-3 FLR-1 SCH-A HPLCMT-NORTH ZN
 Return Air Path,6,SYS_3_PSZ SP-STORY 1 NORTH RIGHT PERIMETER SPACE SYS-3 FLR-1 SCH-A HPLCMT-NORTH ZN RETURN PATH,SYS_3_PSZ SP-STORY 1 NORTH RIGHT PERIMETER SPACE SYS-3 FLR-1 SCH-A HPLCMT-NORTH ZN
   #Components on Return Air Path,1
   Return Air Path Component,1,AIRLOOPHVAC:ZONEMIXER,AIR LOOP HVAC ZONE MIXER 3,SYS_3_PSZ SP-STORY 1 NORTH RIGHT PERIMETER SPACE SYS-3 FLR-1 SCH-A HPLCMT-NORTH ZN
     #Inlet Nodes on Return Air Path Component,1
     Return Air Path Component Nodes,1,AIRLOOPHVAC:ZONEMIXER,AIR LOOP HVAC ZONE MIXER 3,NODE 71,NODE 64,SYS_3_PSZ SP-STORY 1 NORTH RIGHT PERIMETER SPACE SYS-3 FLR-1 SCH-A HPLCMT-NORTH ZN
! <#Nodes on Return Air Path>,<Number of Nodes>
! <Return Air Path Node>,<Node Type>,<Node Count>,<Node Name>,<AirLoopHVAC Name>
   #Nodes on Return Air Path,2
   Return Air Path Node,Outlet Node,1,NODE 64,SYS_3_PSZ SP-STORY 1 NORTH RIGHT PERIMETER SPACE SYS-3 FLR-1 SCH-A HPLCMT-NORTH ZN
   Return Air Path Node,Inlet Node,2,NODE 71,SYS_3_PSZ SP-STORY 1 NORTH RIGHT PERIMETER SPACE SYS-3 FLR-1 SCH-A HPLCMT-NORTH ZN
 Return Air Path,7,SYS_3_PSZ SP-STORY 1 SOUTH CORE SPACE SYS-3 FLR-1 SCH-A HPLCMT-CORE ZN RETURN PATH,SYS_3_PSZ SP-STORY 1 SOUTH CORE SPACE SYS-3 FLR-1 SCH-A HPLCMT-CORE ZN
   #Components on Return Air Path,1
   Return Air Path Component,1,AIRLOOPHVAC:ZONEMIXER,AIR LOOP HVAC ZONE MIXER 10,SYS_3_PSZ SP-STORY 1 SOUTH CORE SPACE SYS-3 FLR-1 SCH-A HPLCMT-CORE ZN
     #Inlet Nodes on Return Air Path Component,1
     Return Air Path Component Nodes,1,AIRLOOPHVAC:ZONEMIXER,AIR LOOP HVAC ZONE MIXER 10,NODE 162,NODE 155,SYS_3_PSZ SP-STORY 1 SOUTH CORE SPACE SYS-3 FLR-1 SCH-A HPLCMT-CORE ZN
! <#Nodes on Return Air Path>,<Number of Nodes>
! <Return Air Path Node>,<Node Type>,<Node Count>,<Node Name>,<AirLoopHVAC Name>
   #Nodes on Return Air Path,2
   Return Air Path Node,Outlet Node,1,NODE 155,SYS_3_PSZ SP-STORY 1 SOUTH CORE SPACE SYS-3 FLR-1 SCH-A HPLCMT-CORE ZN
   Return Air Path Node,Inlet Node,2,NODE 162,SYS_3_PSZ SP-STORY 1 SOUTH CORE SPACE SYS-3 FLR-1 SCH-A HPLCMT-CORE ZN
 Return Air Path,8,SYS_3_PSZ SP-STORY 1 SOUTH LOWER PERIMETER SPACE SYS-3 FLR-1 SCH-A HPLCMT-SOUTH ZN RETURN PATH,SYS_3_PSZ SP-STORY 1 SOUTH LOWER PERIMETER SPACE SYS-3 FLR-1 SCH-A HPLCMT-SOUTH ZN
   #Components on Return Air Path,1
   Return Air Path Component,1,AIRLOOPHVAC:ZONEMIXER,AIR LOOP HVAC ZONE MIXER 8,SYS_3_PSZ SP-STORY 1 SOUTH LOWER PERIMETER SPACE SYS-3 FLR-1 SCH-A HPLCMT-SOUTH ZN
     #Inlet Nodes on Return Air Path Component,1
     Return Air Path Component Nodes,1,AIRLOOPHVAC:ZONEMIXER,AIR LOOP HVAC ZONE MIXER 8,NODE 136,NODE 129,SYS_3_PSZ SP-STORY 1 SOUTH LOWER PERIMETER SPACE SYS-3 FLR-1 SCH-A HPLCMT-SOUTH ZN
! <#Nodes on Return Air Path>,<Number of Nodes>
! <Return Air Path Node>,<Node Type>,<Node Count>,<Node Name>,<AirLoopHVAC Name>
   #Nodes on Return Air Path,2
   Return Air Path Node,Outlet Node,1,NODE 129,SYS_3_PSZ SP-STORY 1 SOUTH LOWER PERIMETER SPACE SYS-3 FLR-1 SCH-A HPLCMT-SOUTH ZN
   Return Air Path Node,Inlet Node,2,NODE 136,SYS_3_PSZ SP-STORY 1 SOUTH LOWER PERIMETER SPACE SYS-3 FLR-1 SCH-A HPLCMT-SOUTH ZN
 Return Air Path,9,SYS_3_PSZ SP-STORY 1 WEST CORE SPACE SYS-3 FLR-1 SCH-A HPLCMT-CORE ZN RETURN PATH,SYS_3_PSZ SP-STORY 1 WEST CORE SPACE SYS-3 FLR-1 SCH-A HPLCMT-CORE ZN
   #Components on Return Air Path,1
   Return Air Path Component,1,AIRLOOPHVAC:ZONEMIXER,AIR LOOP HVAC ZONE MIXER 11,SYS_3_PSZ SP-STORY 1 WEST CORE SPACE SYS-3 FLR-1 SCH-A HPLCMT-CORE ZN
     #Inlet Nodes on Return Air Path Component,1
     Return Air Path Component Nodes,1,AIRLOOPHVAC:ZONEMIXER,AIR LOOP HVAC ZONE MIXER 11,NODE 175,NODE 168,SYS_3_PSZ SP-STORY 1 WEST CORE SPACE SYS-3 FLR-1 SCH-A HPLCMT-CORE ZN
! <#Nodes on Return Air Path>,<Number of Nodes>
! <Return Air Path Node>,<Node Type>,<Node Count>,<Node Name>,<AirLoopHVAC Name>
   #Nodes on Return Air Path,2
   Return Air Path Node,Outlet Node,1,NODE 168,SYS_3_PSZ SP-STORY 1 WEST CORE SPACE SYS-3 FLR-1 SCH-A HPLCMT-CORE ZN
   Return Air Path Node,Inlet Node,2,NODE 175,SYS_3_PSZ SP-STORY 1 WEST CORE SPACE SYS-3 FLR-1 SCH-A HPLCMT-CORE ZN
 Return Air Path,10,SYS_3_PSZ SP-STORY 1 WEST LEFT PERIMETER SPACE SYS-3 FLR-1 SCH-A HPLCMT-WEST ZN RETURN PATH,SYS_3_PSZ SP-STORY 1 WEST LEFT PERIMETER SPACE SYS-3 FLR-1 SCH-A HPLCMT-WEST ZN
   #Components on Return Air Path,1
   Return Air Path Component,1,AIRLOOPHVAC:ZONEMIXER,AIR LOOP HVAC ZONE MIXER 6,SYS_3_PSZ SP-STORY 1 WEST LEFT PERIMETER SPACE SYS-3 FLR-1 SCH-A HPLCMT-WEST ZN
     #Inlet Nodes on Return Air Path Component,1
     Return Air Path Component Nodes,1,AIRLOOPHVAC:ZONEMIXER,AIR LOOP HVAC ZONE MIXER 6,NODE 110,NODE 103,SYS_3_PSZ SP-STORY 1 WEST LEFT PERIMETER SPACE SYS-3 FLR-1 SCH-A HPLCMT-WEST ZN
! <#Nodes on Return Air Path>,<Number of Nodes>
! <Return Air Path Node>,<Node Type>,<Node Count>,<Node Name>,<AirLoopHVAC Name>
   #Nodes on Return Air Path,2
   Return Air Path Node,Outlet Node,1,NODE 103,SYS_3_PSZ SP-STORY 1 WEST LEFT PERIMETER SPACE SYS-3 FLR-1 SCH-A HPLCMT-WEST ZN
   Return Air Path Node,Inlet Node,2,NODE 110,SYS_3_PSZ SP-STORY 1 WEST LEFT PERIMETER SPACE SYS-3 FLR-1 SCH-A HPLCMT-WEST ZN
 Return Air Path,11,SYS_3_PSZ SP-STORY 1 WEST RIGHT PERIMETER SPACE SYS-3 FLR-1 SCH-A HPLCMT-WEST ZN RETURN PATH,SYS_3_PSZ SP-STORY 1 WEST RIGHT PERIMETER SPACE SYS-3 FLR-1 SCH-A HPLCMT-WEST ZN
   #Components on Return Air Path,1
   Return Air Path Component,1,AIRLOOPHVAC:ZONEMIXER,AIR LOOP HVAC ZONE MIXER 7,SYS_3_PSZ SP-STORY 1 WEST RIGHT PERIMETER SPACE SYS-3 FLR-1 SCH-A HPLCMT-WEST ZN
     #Inlet Nodes on Return Air Path Component,1
     Return Air Path Component Nodes,1,AIRLOOPHVAC:ZONEMIXER,AIR LOOP HVAC ZONE MIXER 7,NODE 123,NODE 116,SYS_3_PSZ SP-STORY 1 WEST RIGHT PERIMETER SPACE SYS-3 FLR-1 SCH-A HPLCMT-WEST ZN
! <#Nodes on Return Air Path>,<Number of Nodes>
! <Return Air Path Node>,<Node Type>,<Node Count>,<Node Name>,<AirLoopHVAC Name>
   #Nodes on Return Air Path,2
   Return Air Path Node,Outlet Node,1,NODE 116,SYS_3_PSZ SP-STORY 1 WEST RIGHT PERIMETER SPACE SYS-3 FLR-1 SCH-A HPLCMT-WEST ZN
   Return Air Path Node,Inlet Node,2,NODE 123,SYS_3_PSZ SP-STORY 1 WEST RIGHT PERIMETER SPACE SYS-3 FLR-1 SCH-A HPLCMT-WEST ZN
 Return Air Path,12,SYS_3_PSZ SP-STORY 2 EAST CORE SPACE SYS-3 FLR-2 SCH-A HPLCMT-CORE ZN RETURN PATH,SYS_3_PSZ SP-STORY 2 EAST CORE SPACE SYS-3 FLR-2 SCH-A HPLCMT-CORE ZN
   #Components on Return Air Path,1
   Return Air Path Component,1,AIRLOOPHVAC:ZONEMIXER,AIR LOOP HVAC ZONE MIXER 20,SYS_3_PSZ SP-STORY 2 EAST CORE SPACE SYS-3 FLR-2 SCH-A HPLCMT-CORE ZN
     #Inlet Nodes on Return Air Path Component,1
     Return Air Path Component Nodes,1,AIRLOOPHVAC:ZONEMIXER,AIR LOOP HVAC ZONE MIXER 20,NODE 292,NODE 285,SYS_3_PSZ SP-STORY 2 EAST CORE SPACE SYS-3 FLR-2 SCH-A HPLCMT-CORE ZN
! <#Nodes on Return Air Path>,<Number of Nodes>
! <Return Air Path Node>,<Node Type>,<Node Count>,<Node Name>,<AirLoopHVAC Name>
   #Nodes on Return Air Path,2
   Return Air Path Node,Outlet Node,1,NODE 285,SYS_3_PSZ SP-STORY 2 EAST CORE SPACE SYS-3 FLR-2 SCH-A HPLCMT-CORE ZN
   Return Air Path Node,Inlet Node,2,NODE 292,SYS_3_PSZ SP-STORY 2 EAST CORE SPACE SYS-3 FLR-2 SCH-A HPLCMT-CORE ZN
 Return Air Path,13,SYS_3_PSZ SP-STORY 2 EAST LEFT PERIMETER SPACE SYS-3 FLR-2 SCH-A HPLCMT-EAST ZN RETURN PATH,SYS_3_PSZ SP-STORY 2 EAST LEFT PERIMETER SPACE SYS-3 FLR-2 SCH-A HPLCMT-EAST ZN
   #Components on Return Air Path,1
   Return Air Path Component,1,AIRLOOPHVAC:ZONEMIXER,AIR LOOP HVAC ZONE MIXER 15,SYS_3_PSZ SP-STORY 2 EAST LEFT PERIMETER SPACE SYS-3 FLR-2 SCH-A HPLCMT-EAST ZN
     #Inlet Nodes on Return Air Path Component,1
     Return Air Path Component Nodes,1,AIRLOOPHVAC:ZONEMIXER,AIR LOOP HVAC ZONE MIXER 15,NODE 227,NODE 220,SYS_3_PSZ SP-STORY 2 EAST LEFT PERIMETER SPACE SYS-3 FLR-2 SCH-A HPLCMT-EAST ZN
! <#Nodes on Return Air Path>,<Number of Nodes>
! <Return Air Path Node>,<Node Type>,<Node Count>,<Node Name>,<AirLoopHVAC Name>
   #Nodes on Return Air Path,2
   Return Air Path Node,Outlet Node,1,NODE 220,SYS_3_PSZ SP-STORY 2 EAST LEFT PERIMETER SPACE SYS-3 FLR-2 SCH-A HPLCMT-EAST ZN
   Return Air Path Node,Inlet Node,2,NODE 227,SYS_3_PSZ SP-STORY 2 EAST LEFT PERIMETER SPACE SYS-3 FLR-2 SCH-A HPLCMT-EAST ZN
 Return Air Path,14,SYS_3_PSZ SP-STORY 2 EAST RIGHT PERIMETER SPACE SYS-3 FLR-2 SCH-A HPLCMT-EAST ZN RETURN PATH,SYS_3_PSZ SP-STORY 2 EAST RIGHT PERIMETER SPACE SYS-3 FLR-2 SCH-A HPLCMT-EAST ZN
   #Components on Return Air Path,1
   Return Air Path Component,1,AIRLOOPHVAC:ZONEMIXER,AIR LOOP HVAC ZONE MIXER 16,SYS_3_PSZ SP-STORY 2 EAST RIGHT PERIMETER SPACE SYS-3 FLR-2 SCH-A HPLCMT-EAST ZN
     #Inlet Nodes on Return Air Path Component,1
     Return Air Path Component Nodes,1,AIRLOOPHVAC:ZONEMIXER,AIR LOOP HVAC ZONE MIXER 16,NODE 240,NODE 233,SYS_3_PSZ SP-STORY 2 EAST RIGHT PERIMETER SPACE SYS-3 FLR-2 SCH-A HPLCMT-EAST ZN
! <#Nodes on Return Air Path>,<Number of Nodes>
! <Return Air Path Node>,<Node Type>,<Node Count>,<Node Name>,<AirLoopHVAC Name>
   #Nodes on Return Air Path,2
   Return Air Path Node,Outlet Node,1,NODE 233,SYS_3_PSZ SP-STORY 2 EAST RIGHT PERIMETER SPACE SYS-3 FLR-2 SCH-A HPLCMT-EAST ZN
   Return Air Path Node,Inlet Node,2,NODE 240,SYS_3_PSZ SP-STORY 2 EAST RIGHT PERIMETER SPACE SYS-3 FLR-2 SCH-A HPLCMT-EAST ZN
 Return Air Path,15,SYS_3_PSZ SP-STORY 2 NORTH LEFT PERIMETER SPACE SYS-3 FLR-2 SCH-A HPLCMT-NORTH ZN RETURN PATH,SYS_3_PSZ SP-STORY 2 NORTH LEFT PERIMETER SPACE SYS-3 FLR-2 SCH-A HPLCMT-NORTH ZN
   #Components on Return Air Path,1
   Return Air Path Component,1,AIRLOOPHVAC:ZONEMIXER,AIR LOOP HVAC ZONE MIXER 12,SYS_3_PSZ SP-STORY 2 NORTH LEFT PERIMETER SPACE SYS-3 FLR-2 SCH-A HPLCMT-NORTH ZN
     #Inlet Nodes on Return Air Path Component,1
     Return Air Path Component Nodes,1,AIRLOOPHVAC:ZONEMIXER,AIR LOOP HVAC ZONE MIXER 12,NODE 188,NODE 181,SYS_3_PSZ SP-STORY 2 NORTH LEFT PERIMETER SPACE SYS-3 FLR-2 SCH-A HPLCMT-NORTH ZN
! <#Nodes on Return Air Path>,<Number of Nodes>
! <Return Air Path Node>,<Node Type>,<Node Count>,<Node Name>,<AirLoopHVAC Name>
   #Nodes on Return Air Path,2
   Return Air Path Node,Outlet Node,1,NODE 181,SYS_3_PSZ SP-STORY 2 NORTH LEFT PERIMETER SPACE SYS-3 FLR-2 SCH-A HPLCMT-NORTH ZN
   Return Air Path Node,Inlet Node,2,NODE 188,SYS_3_PSZ SP-STORY 2 NORTH LEFT PERIMETER SPACE SYS-3 FLR-2 SCH-A HPLCMT-NORTH ZN
 Return Air Path,16,SYS_3_PSZ SP-STORY 2 NORTH LOWER PERIMETER SPACE SYS-3 FLR-2 SCH-A HPLCMT-NORTH ZN RETURN PATH,SYS_3_PSZ SP-STORY 2 NORTH LOWER PERIMETER SPACE SYS-3 FLR-2 SCH-A HPLCMT-NORTH ZN
   #Components on Return Air Path,1
   Return Air Path Component,1,AIRLOOPHVAC:ZONEMIXER,AIR LOOP HVAC ZONE MIXER 13,SYS_3_PSZ SP-STORY 2 NORTH LOWER PERIMETER SPACE SYS-3 FLR-2 SCH-A HPLCMT-NORTH ZN
     #Inlet Nodes on Return Air Path Component,1
     Return Air Path Component Nodes,1,AIRLOOPHVAC:ZONEMIXER,AIR LOOP HVAC ZONE MIXER 13,NODE 201,NODE 194,SYS_3_PSZ SP-STORY 2 NORTH LOWER PERIMETER SPACE SYS-3 FLR-2 SCH-A HPLCMT-NORTH ZN
! <#Nodes on Return Air Path>,<Number of Nodes>
! <Return Air Path Node>,<Node Type>,<Node Count>,<Node Name>,<AirLoopHVAC Name>
   #Nodes on Return Air Path,2
   Return Air Path Node,Outlet Node,1,NODE 194,SYS_3_PSZ SP-STORY 2 NORTH LOWER PERIMETER SPACE SYS-3 FLR-2 SCH-A HPLCMT-NORTH ZN
   Return Air Path Node,Inlet Node,2,NODE 201,SYS_3_PSZ SP-STORY 2 NORTH LOWER PERIMETER SPACE SYS-3 FLR-2 SCH-A HPLCMT-NORTH ZN
 Return Air Path,17,SYS_3_PSZ SP-STORY 2 NORTH RIGHT PERIMETER SPACE SYS-3 FLR-2 SCH-A HPLCMT-NORTH ZN RETURN PATH,SYS_3_PSZ SP-STORY 2 NORTH RIGHT PERIMETER SPACE SYS-3 FLR-2 SCH-A HPLCMT-NORTH ZN
   #Components on Return Air Path,1
   Return Air Path Component,1,AIRLOOPHVAC:ZONEMIXER,AIR LOOP HVAC ZONE MIXER 14,SYS_3_PSZ SP-STORY 2 NORTH RIGHT PERIMETER SPACE SYS-3 FLR-2 SCH-A HPLCMT-NORTH ZN
     #Inlet Nodes on Return Air Path Component,1
     Return Air Path Component Nodes,1,AIRLOOPHVAC:ZONEMIXER,AIR LOOP HVAC ZONE MIXER 14,NODE 214,NODE 207,SYS_3_PSZ SP-STORY 2 NORTH RIGHT PERIMETER SPACE SYS-3 FLR-2 SCH-A HPLCMT-NORTH ZN
! <#Nodes on Return Air Path>,<Number of Nodes>
! <Return Air Path Node>,<Node Type>,<Node Count>,<Node Name>,<AirLoopHVAC Name>
   #Nodes on Return Air Path,2
   Return Air Path Node,Outlet Node,1,NODE 207,SYS_3_PSZ SP-STORY 2 NORTH RIGHT PERIMETER SPACE SYS-3 FLR-2 SCH-A HPLCMT-NORTH ZN
   Return Air Path Node,Inlet Node,2,NODE 214,SYS_3_PSZ SP-STORY 2 NORTH RIGHT PERIMETER SPACE SYS-3 FLR-2 SCH-A HPLCMT-NORTH ZN
 Return Air Path,18,SYS_3_PSZ SP-STORY 2 SOUTH CORE SPACE SYS-3 FLR-2 SCH-A HPLCMT-CORE ZN RETURN PATH,SYS_3_PSZ SP-STORY 2 SOUTH CORE SPACE SYS-3 FLR-2 SCH-A HPLCMT-CORE ZN
   #Components on Return Air Path,1
   Return Air Path Component,1,AIRLOOPHVAC:ZONEMIXER,AIR LOOP HVAC ZONE MIXER 21,SYS_3_PSZ SP-STORY 2 SOUTH CORE SPACE SYS-3 FLR-2 SCH-A HPLCMT-CORE ZN
     #Inlet Nodes on Return Air Path Component,1
     Return Air Path Component Nodes,1,AIRLOOPHVAC:ZONEMIXER,AIR LOOP HVAC ZONE MIXER 21,NODE 305,NODE 298,SYS_3_PSZ SP-STORY 2 SOUTH CORE SPACE SYS-3 FLR-2 SCH-A HPLCMT-CORE ZN
! <#Nodes on Return Air Path>,<Number of Nodes>
! <Return Air Path Node>,<Node Type>,<Node Count>,<Node Name>,<AirLoopHVAC Name>
   #Nodes on Return Air Path,2
   Return Air Path Node,Outlet Node,1,NODE 298,SYS_3_PSZ SP-STORY 2 SOUTH CORE SPACE SYS-3 FLR-2 SCH-A HPLCMT-CORE ZN
   Return Air Path Node,Inlet Node,2,NODE 305,SYS_3_PSZ SP-STORY 2 SOUTH CORE SPACE SYS-3 FLR-2 SCH-A HPLCMT-CORE ZN
 Return Air Path,19,SYS_3_PSZ SP-STORY 2 SOUTH LOWER PERIMETER SPACE SYS-3 FLR-2 SCH-A HPLCMT-SOUTH ZN RETURN PATH,SYS_3_PSZ SP-STORY 2 SOUTH LOWER PERIMETER SPACE SYS-3 FLR-2 SCH-A HPLCMT-SOUTH ZN
   #Components on Return Air Path,1
   Return Air Path Component,1,AIRLOOPHVAC:ZONEMIXER,AIR LOOP HVAC ZONE MIXER 19,SYS_3_PSZ SP-STORY 2 SOUTH LOWER PERIMETER SPACE SYS-3 FLR-2 SCH-A HPLCMT-SOUTH ZN
     #Inlet Nodes on Return Air Path Component,1
     Return Air Path Component Nodes,1,AIRLOOPHVAC:ZONEMIXER,AIR LOOP HVAC ZONE MIXER 19,NODE 279,NODE 272,SYS_3_PSZ SP-STORY 2 SOUTH LOWER PERIMETER SPACE SYS-3 FLR-2 SCH-A HPLCMT-SOUTH ZN
! <#Nodes on Return Air Path>,<Number of Nodes>
! <Return Air Path Node>,<Node Type>,<Node Count>,<Node Name>,<AirLoopHVAC Name>
   #Nodes on Return Air Path,2
   Return Air Path Node,Outlet Node,1,NODE 272,SYS_3_PSZ SP-STORY 2 SOUTH LOWER PERIMETER SPACE SYS-3 FLR-2 SCH-A HPLCMT-SOUTH ZN
   Return Air Path Node,Inlet Node,2,NODE 279,SYS_3_PSZ SP-STORY 2 SOUTH LOWER PERIMETER SPACE SYS-3 FLR-2 SCH-A HPLCMT-SOUTH ZN
 Return Air Path,20,SYS_3_PSZ SP-STORY 2 WEST CORE SPACE SYS-3 FLR-2 SCH-A HPLCMT-CORE ZN RETURN PATH,SYS_3_PSZ SP-STORY 2 WEST CORE SPACE SYS-3 FLR-2 SCH-A HPLCMT-CORE ZN
   #Components on Return Air Path,1
   Return Air Path Component,1,AIRLOOPHVAC:ZONEMIXER,AIR LOOP HVAC ZONE MIXER 22,SYS_3_PSZ SP-STORY 2 WEST CORE SPACE SYS-3 FLR-2 SCH-A HPLCMT-CORE ZN
     #Inlet Nodes on Return Air Path Component,1
     Return Air Path Component Nodes,1,AIRLOOPHVAC:ZONEMIXER,AIR LOOP HVAC ZONE MIXER 22,NODE 318,NODE 311,SYS_3_PSZ SP-STORY 2 WEST CORE SPACE SYS-3 FLR-2 SCH-A HPLCMT-CORE ZN
! <#Nodes on Return Air Path>,<Number of Nodes>
! <Return Air Path Node>,<Node Type>,<Node Count>,<Node Name>,<AirLoopHVAC Name>
   #Nodes on Return Air Path,2
   Return Air Path Node,Outlet Node,1,NODE 311,SYS_3_PSZ SP-STORY 2 WEST CORE SPACE SYS-3 FLR-2 SCH-A HPLCMT-CORE ZN
   Return Air Path Node,Inlet Node,2,NODE 318,SYS_3_PSZ SP-STORY 2 WEST CORE SPACE SYS-3 FLR-2 SCH-A HPLCMT-CORE ZN
 Return Air Path,21,SYS_3_PSZ SP-STORY 2 WEST LEFT PERIMETER SPACE SYS-3 FLR-2 SCH-A HPLCMT-WEST ZN RETURN PATH,SYS_3_PSZ SP-STORY 2 WEST LEFT PERIMETER SPACE SYS-3 FLR-2 SCH-A HPLCMT-WEST ZN
   #Components on Return Air Path,1
   Return Air Path Component,1,AIRLOOPHVAC:ZONEMIXER,AIR LOOP HVAC ZONE MIXER 17,SYS_3_PSZ SP-STORY 2 WEST LEFT PERIMETER SPACE SYS-3 FLR-2 SCH-A HPLCMT-WEST ZN
     #Inlet Nodes on Return Air Path Component,1
     Return Air Path Component Nodes,1,AIRLOOPHVAC:ZONEMIXER,AIR LOOP HVAC ZONE MIXER 17,NODE 253,NODE 246,SYS_3_PSZ SP-STORY 2 WEST LEFT PERIMETER SPACE SYS-3 FLR-2 SCH-A HPLCMT-WEST ZN
! <#Nodes on Return Air Path>,<Number of Nodes>
! <Return Air Path Node>,<Node Type>,<Node Count>,<Node Name>,<AirLoopHVAC Name>
   #Nodes on Return Air Path,2
   Return Air Path Node,Outlet Node,1,NODE 246,SYS_3_PSZ SP-STORY 2 WEST LEFT PERIMETER SPACE SYS-3 FLR-2 SCH-A HPLCMT-WEST ZN
   Return Air Path Node,Inlet Node,2,NODE 253,SYS_3_PSZ SP-STORY 2 WEST LEFT PERIMETER SPACE SYS-3 FLR-2 SCH-A HPLCMT-WEST ZN
 Return Air Path,22,SYS_3_PSZ SP-STORY 2 WEST RIGHT PERIMETER SPACE SYS-3 FLR-2 SCH-A HPLCMT-WEST ZN RETURN PATH,SYS_3_PSZ SP-STORY 2 WEST RIGHT PERIMETER SPACE SYS-3 FLR-2 SCH-A HPLCMT-WEST ZN
   #Components on Return Air Path,1
   Return Air Path Component,1,AIRLOOPHVAC:ZONEMIXER,AIR LOOP HVAC ZONE MIXER 18,SYS_3_PSZ SP-STORY 2 WEST RIGHT PERIMETER SPACE SYS-3 FLR-2 SCH-A HPLCMT-WEST ZN
     #Inlet Nodes on Return Air Path Component,1
     Return Air Path Component Nodes,1,AIRLOOPHVAC:ZONEMIXER,AIR LOOP HVAC ZONE MIXER 18,NODE 266,NODE 259,SYS_3_PSZ SP-STORY 2 WEST RIGHT PERIMETER SPACE SYS-3 FLR-2 SCH-A HPLCMT-WEST ZN
! <#Nodes on Return Air Path>,<Number of Nodes>
! <Return Air Path Node>,<Node Type>,<Node Count>,<Node Name>,<AirLoopHVAC Name>
   #Nodes on Return Air Path,2
   Return Air Path Node,Outlet Node,1,NODE 259,SYS_3_PSZ SP-STORY 2 WEST RIGHT PERIMETER SPACE SYS-3 FLR-2 SCH-A HPLCMT-WEST ZN
   Return Air Path Node,Inlet Node,2,NODE 266,SYS_3_PSZ SP-STORY 2 WEST RIGHT PERIMETER SPACE SYS-3 FLR-2 SCH-A HPLCMT-WEST ZN
! ===============================================================
! #Outdoor Air Nodes,<Number of Outdoor Air Nodes>
 #Outdoor Air Nodes,23
! <Outdoor Air Node>,<NodeNumber>,<Node Name>
 Outdoor Air Node,341,NODE 144
 Outdoor Air Node,342,NODE 79
 Outdoor Air Node,343,NODE 92
 Outdoor Air Node,344,NODE 41
 Outdoor Air Node,345,NODE 53
 Outdoor Air Node,346,NODE 66
 Outdoor Air Node,347,NODE 157
 Outdoor Air Node,348,NODE 131
 Outdoor Air Node,349,NODE 170
 Outdoor Air Node,350,NODE 105
 Outdoor Air Node,351,NODE 118
 Outdoor Air Node,352,NODE 287
 Outdoor Air Node,353,NODE 222
 Outdoor Air Node,354,NODE 235
 Outdoor Air Node,355,NODE 183
 Outdoor Air Node,356,NODE 196
 Outdoor Air Node,357,NODE 209
 Outdoor Air Node,358,NODE 300
 Outdoor Air Node,359,NODE 274
 Outdoor Air Node,360,NODE 313
 Outdoor Air Node,361,NODE 248
 Outdoor Air Node,362,NODE 261
 Outdoor Air Node,363,MODEL OUTDOOR AIR NODE
! ===============================================================
! <#Component Sets>,<Number of Component Sets>
 #Component Sets,192
! <Component Set>,<Component Set Count>,<Parent Object Type>,<Parent Object Name>,<Component Type>,<Component Name>,<Inlet Node ID>,<Outlet Node ID>,<Description>
 Component Set,1,BRANCH,SYS_3_PSZ SP-STORY 1 EAST CORE SPACE SYS-3 FLR-1 SCH-A HPLCMT-CORE ZN MAIN BRANCH,AIRLOOPHVAC:OUTDOORAIRSYSTEM,AIR LOOP HVAC OUTDOOR AIR SYSTEM 9,NODE 139,NODE 148,Air Nodes
 Component Set,2,BRANCH,SYS_3_PSZ SP-STORY 1 EAST CORE SPACE SYS-3 FLR-1 SCH-A HPLCMT-CORE ZN MAIN BRANCH,COILSYSTEM:COOLING:DX,COIL COOLING DX SINGLE SPEED 9 COILSYSTEM,NODE 148,NODE 147,Air Nodes
 Component Set,3,BRANCH,SYS_3_PSZ SP-STORY 1 EAST CORE SPACE SYS-3 FLR-1 SCH-A HPLCMT-CORE ZN MAIN BRANCH,COIL:HEATING:FUEL,COIL HEATING GAS 9,NODE 147,NODE 146,Air Nodes
 Component Set,4,BRANCH,SYS_3_PSZ SP-STORY 1 EAST CORE SPACE SYS-3 FLR-1 SCH-A HPLCMT-CORE ZN MAIN BRANCH,FAN:CONSTANTVOLUME,FAN CONSTANT VOLUME 9,NODE 146,NODE 140,Air Nodes
 Component Set,5,BRANCH,SYS_3_PSZ SP-STORY 1 EAST LEFT PERIMETER SPACE SYS-3 FLR-1 SCH-A HPLCMT-EAST ZN MAIN BRANCH,AIRLOOPHVAC:OUTDOORAIRSYSTEM,AIR LOOP HVAC OUTDOOR AIR SYSTEM 4,NODE 74,NODE 83,Air Nodes
 Component Set,6,BRANCH,SYS_3_PSZ SP-STORY 1 EAST LEFT PERIMETER SPACE SYS-3 FLR-1 SCH-A HPLCMT-EAST ZN MAIN BRANCH,COILSYSTEM:COOLING:DX,COIL COOLING DX SINGLE SPEED 4 COILSYSTEM,NODE 83,NODE 82,Air Nodes
 Component Set,7,BRANCH,SYS_3_PSZ SP-STORY 1 EAST LEFT PERIMETER SPACE SYS-3 FLR-1 SCH-A HPLCMT-EAST ZN MAIN BRANCH,COIL:HEATING:FUEL,COIL HEATING GAS 4,NODE 82,NODE 81,Air Nodes
 Component Set,8,BRANCH,SYS_3_PSZ SP-STORY 1 EAST LEFT PERIMETER SPACE SYS-3 FLR-1 SCH-A HPLCMT-EAST ZN MAIN BRANCH,FAN:CONSTANTVOLUME,FAN CONSTANT VOLUME 4,NODE 81,NODE 75,Air Nodes
 Component Set,9,BRANCH,SYS_3_PSZ SP-STORY 1 EAST RIGHT PERIMETER SPACE SYS-3 FLR-1 SCH-A HPLCMT-EAST ZN MAIN BRANCH,AIRLOOPHVAC:OUTDOORAIRSYSTEM,AIR LOOP HVAC OUTDOOR AIR SYSTEM 5,NODE 87,NODE 96,Air Nodes
 Component Set,10,BRANCH,SYS_3_PSZ SP-STORY 1 EAST RIGHT PERIMETER SPACE SYS-3 FLR-1 SCH-A HPLCMT-EAST ZN MAIN BRANCH,COILSYSTEM:COOLING:DX,COIL COOLING DX SINGLE SPEED 5 COILSYSTEM,NODE 96,NODE 95,Air Nodes
 Component Set,11,BRANCH,SYS_3_PSZ SP-STORY 1 EAST RIGHT PERIMETER SPACE SYS-3 FLR-1 SCH-A HPLCMT-EAST ZN MAIN BRANCH,COIL:HEATING:FUEL,COIL HEATING GAS 5,NODE 95,NODE 94,Air Nodes
 Component Set,12,BRANCH,SYS_3_PSZ SP-STORY 1 EAST RIGHT PERIMETER SPACE SYS-3 FLR-1 SCH-A HPLCMT-EAST ZN MAIN BRANCH,FAN:CONSTANTVOLUME,FAN CONSTANT VOLUME 5,NODE 94,NODE 88,Air Nodes
 Component Set,13,BRANCH,SYS_3_PSZ SP-STORY 1 NORTH LEFT PERIMETER SPACE SYS-3 FLR-1 SCH-A HPLCMT-NORTH ZN MAIN BRANCH,AIRLOOPHVAC:OUTDOORAIRSYSTEM,AIR LOOP HVAC OUTDOOR AIR SYSTEM 1,NODE 36,NODE 45,Air Nodes
 Component Set,14,BRANCH,SYS_3_PSZ SP-STORY 1 NORTH LEFT PERIMETER SPACE SYS-3 FLR-1 SCH-A HPLCMT-NORTH ZN MAIN BRANCH,COILSYSTEM:COOLING:DX,COIL COOLING DX SINGLE SPEED 1 COILSYSTEM,NODE 45,NODE 44,Air Nodes
 Component Set,15,BRANCH,SYS_3_PSZ SP-STORY 1 NORTH LEFT PERIMETER SPACE SYS-3 FLR-1 SCH-A HPLCMT-NORTH ZN MAIN BRANCH,COIL:HEATING:FUEL,COIL HEATING GAS 1,NODE 44,NODE 43,Air Nodes
 Component Set,16,BRANCH,SYS_3_PSZ SP-STORY 1 NORTH LEFT PERIMETER SPACE SYS-3 FLR-1 SCH-A HPLCMT-NORTH ZN MAIN BRANCH,FAN:CONSTANTVOLUME,FAN CONSTANT VOLUME 1,NODE 43,NODE 37,Air Nodes
 Component Set,17,BRANCH,SYS_3_PSZ SP-STORY 1 NORTH LOWER PERIMETER SPACE SYS-3 FLR-1 SCH-A HPLCMT-NORTH ZN MAIN BRANCH,AIRLOOPHVAC:OUTDOORAIRSYSTEM,AIR LOOP HVAC OUTDOOR AIR SYSTEM 2,NODE 48,NODE 57,Air Nodes
 Component Set,18,BRANCH,SYS_3_PSZ SP-STORY 1 NORTH LOWER PERIMETER SPACE SYS-3 FLR-1 SCH-A HPLCMT-NORTH ZN MAIN BRANCH,COILSYSTEM:COOLING:DX,COIL COOLING DX SINGLE SPEED 2 COILSYSTEM,NODE 57,NODE 56,Air Nodes
 Component Set,19,BRANCH,SYS_3_PSZ SP-STORY 1 NORTH LOWER PERIMETER SPACE SYS-3 FLR-1 SCH-A HPLCMT-NORTH ZN MAIN BRANCH,COIL:HEATING:FUEL,COIL HEATING GAS 2,NODE 56,NODE 55,Air Nodes
 Component Set,20,BRANCH,SYS_3_PSZ SP-STORY 1 NORTH LOWER PERIMETER SPACE SYS-3 FLR-1 SCH-A HPLCMT-NORTH ZN MAIN BRANCH,FAN:CONSTANTVOLUME,FAN CONSTANT VOLUME 2,NODE 55,NODE 49,Air Nodes
 Component Set,21,BRANCH,SYS_3_PSZ SP-STORY 1 NORTH RIGHT PERIMETER SPACE SYS-3 FLR-1 SCH-A HPLCMT-NORTH ZN MAIN BRANCH,AIRLOOPHVAC:OUTDOORAIRSYSTEM,AIR LOOP HVAC OUTDOOR AIR SYSTEM 3,NODE 61,NODE 70,Air Nodes
 Component Set,22,BRANCH,SYS_3_PSZ SP-STORY 1 NORTH RIGHT PERIMETER SPACE SYS-3 FLR-1 SCH-A HPLCMT-NORTH ZN MAIN BRANCH,COILSYSTEM:COOLING:DX,COIL COOLING DX SINGLE SPEED 3 COILSYSTEM,NODE 70,NODE 69,Air Nodes
 Component Set,23,BRANCH,SYS_3_PSZ SP-STORY 1 NORTH RIGHT PERIMETER SPACE SYS-3 FLR-1 SCH-A HPLCMT-NORTH ZN MAIN BRANCH,COIL:HEATING:FUEL,COIL HEATING GAS 3,NODE 69,NODE 68,Air Nodes
 Component Set,24,BRANCH,SYS_3_PSZ SP-STORY 1 NORTH RIGHT PERIMETER SPACE SYS-3 FLR-1 SCH-A HPLCMT-NORTH ZN MAIN BRANCH,FAN:CONSTANTVOLUME,FAN CONSTANT VOLUME 3,NODE 68,NODE 62,Air Nodes
 Component Set,25,BRANCH,SYS_3_PSZ SP-STORY 1 SOUTH CORE SPACE SYS-3 FLR-1 SCH-A HPLCMT-CORE ZN MAIN BRANCH,AIRLOOPHVAC:OUTDOORAIRSYSTEM,AIR LOOP HVAC OUTDOOR AIR SYSTEM 10,NODE 152,NODE 161,Air Nodes
 Component Set,26,BRANCH,SYS_3_PSZ SP-STORY 1 SOUTH CORE SPACE SYS-3 FLR-1 SCH-A HPLCMT-CORE ZN MAIN BRANCH,COILSYSTEM:COOLING:DX,COIL COOLING DX SINGLE SPEED 10 COILSYSTEM,NODE 161,NODE 160,Air Nodes
 Component Set,27,BRANCH,SYS_3_PSZ SP-STORY 1 SOUTH CORE SPACE SYS-3 FLR-1 SCH-A HPLCMT-CORE ZN MAIN BRANCH,COIL:HEATING:FUEL,COIL HEATING GAS 10,NODE 160,NODE 159,Air Nodes
 Component Set,28,BRANCH,SYS_3_PSZ SP-STORY 1 SOUTH CORE SPACE SYS-3 FLR-1 SCH-A HPLCMT-CORE ZN MAIN BRANCH,FAN:CONSTANTVOLUME,FAN CONSTANT VOLUME 10,NODE 159,NODE 153,Air Nodes
[...]
 Non-Parent Node Connection,NODE 302,FAN:CONSTANTVOLUME,FAN CONSTANT VOLUME 21,Inlet,1
 Non-Parent Node Connection,NODE 296,FAN:CONSTANTVOLUME,FAN CONSTANT VOLUME 21,Outlet,1
 Non-Parent Node Connection,NODE 276,FAN:CONSTANTVOLUME,FAN CONSTANT VOLUME 19,Inlet,1
 Non-Parent Node Connection,NODE 270,FAN:CONSTANTVOLUME,FAN CONSTANT VOLUME 19,Outlet,1
 Non-Parent Node Connection,NODE 315,FAN:CONSTANTVOLUME,FAN CONSTANT VOLUME 22,Inlet,1
 Non-Parent Node Connection,NODE 309,FAN:CONSTANTVOLUME,FAN CONSTANT VOLUME 22,Outlet,1
 Non-Parent Node Connection,NODE 250,FAN:CONSTANTVOLUME,FAN CONSTANT VOLUME 17,Inlet,1
 Non-Parent Node Connection,NODE 244,FAN:CONSTANTVOLUME,FAN CONSTANT VOLUME 17,Outlet,1
 Non-Parent Node Connection,NODE 263,FAN:CONSTANTVOLUME,FAN CONSTANT VOLUME 18,Inlet,1
 Non-Parent Node Connection,NODE 257,FAN:CONSTANTVOLUME,FAN CONSTANT VOLUME 18,Outlet,1
 Non-Parent Node Connection,NODE 148,CONTROLLER:OUTDOORAIR,CONTROLLER OUTDOOR AIR 9,Sensor,1
 Non-Parent Node Connection,NODE 144,CONTROLLER:OUTDOORAIR,CONTROLLER OUTDOOR AIR 9,Actuator,1
 Non-Parent Node Connection,NODE 145,CONTROLLER:OUTDOORAIR,CONTROLLER OUTDOOR AIR 9,Actuator,1
 Non-Parent Node Connection,NODE 139,CONTROLLER:OUTDOORAIR,CONTROLLER OUTDOOR AIR 9,Sensor,1
 Non-Parent Node Connection,NODE 83,CONTROLLER:OUTDOORAIR,CONTROLLER OUTDOOR AIR 4,Sensor,1
 Non-Parent Node Connection,NODE 79,CONTROLLER:OUTDOORAIR,CONTROLLER OUTDOOR AIR 4,Actuator,1
 Non-Parent Node Connection,NODE 80,CONTROLLER:OUTDOORAIR,CONTROLLER OUTDOOR AIR 4,Actuator,1
 Non-Parent Node Connection,NODE 74,CONTROLLER:OUTDOORAIR,CONTROLLER OUTDOOR AIR 4,Sensor,1
 Non-Parent Node Connection,NODE 96,CONTROLLER:OUTDOORAIR,CONTROLLER OUTDOOR AIR 5,Sensor,1
 Non-Parent Node Connection,NODE 92,CONTROLLER:OUTDOORAIR,CONTROLLER OUTDOOR AIR 5,Actuator,1
 Non-Parent Node Connection,NODE 93,CONTROLLER:OUTDOORAIR,CONTROLLER OUTDOOR AIR 5,Actuator,1
 Non-Parent Node Connection,NODE 87,CONTROLLER:OUTDOORAIR,CONTROLLER OUTDOOR AIR 5,Sensor,1
 Non-Parent Node Connection,NODE 45,CONTROLLER:OUTDOORAIR,CONTROLLER OUTDOOR AIR 1,Sensor,1
 Non-Parent Node Connection,NODE 41,CONTROLLER:OUTDOORAIR,CONTROLLER OUTDOOR AIR 1,Actuator,1
 Non-Parent Node Connection,NODE 42,CONTROLLER:OUTDOORAIR,CONTROLLER OUTDOOR AIR 1,Actuator,1
 Non-Parent Node Connection,NODE 36,CONTROLLER:OUTDOORAIR,CONTROLLER OUTDOOR AIR 1,Sensor,1
 Non-Parent Node Connection,NODE 57,CONTROLLER:OUTDOORAIR,CONTROLLER OUTDOOR AIR 2,Sensor,1
 Non-Parent Node Connection,NODE 53,CONTROLLER:OUTDOORAIR,CONTROLLER OUTDOOR AIR 2,Actuator,1
 Non-Parent Node Connection,NODE 54,CONTROLLER:OUTDOORAIR,CONTROLLER OUTDOOR AIR 2,Actuator,1
 Non-Parent Node Connection,NODE 48,CONTROLLER:OUTDOORAIR,CONTROLLER OUTDOOR AIR 2,Sensor,1
 Non-Parent Node Connection,NODE 70,CONTROLLER:OUTDOORAIR,CONTROLLER OUTDOOR AIR 3,Sensor,1
 Non-Parent Node Connection,NODE 66,CONTROLLER:OUTDOORAIR,CONTROLLER OUTDOOR AIR 3,Actuator,1
 Non-Parent Node Connection,NODE 67,CONTROLLER:OUTDOORAIR,CONTROLLER OUTDOOR AIR 3,Actuator,1
 Non-Parent Node Connection,NODE 61,CONTROLLER:OUTDOORAIR,CONTROLLER OUTDOOR AIR 3,Sensor,1
 Non-Parent Node Connection,NODE 161,CONTROLLER:OUTDOORAIR,CONTROLLER OUTDOOR AIR 10,Sensor,1
 Non-Parent Node Connection,NODE 157,CONTROLLER:OUTDOORAIR,CONTROLLER OUTDOOR AIR 10,Actuator,1
 Non-Parent Node Connection,NODE 158,CONTROLLER:OUTDOORAIR,CONTROLLER OUTDOOR AIR 10,Actuator,1
 Non-Parent Node Connection,NODE 152,CONTROLLER:OUTDOORAIR,CONTROLLER OUTDOOR AIR 10,Sensor,1
 Non-Parent Node Connection,NODE 135,CONTROLLER:OUTDOORAIR,CONTROLLER OUTDOOR AIR 8,Sensor,1
 Non-Parent Node Connection,NODE 131,CONTROLLER:OUTDOORAIR,CONTROLLER OUTDOOR AIR 8,Actuator,1
 Non-Parent Node Connection,NODE 132,CONTROLLER:OUTDOORAIR,CONTROLLER OUTDOOR AIR 8,Actuator,1
 Non-Parent Node Connection,NODE 126,CONTROLLER:OUTDOORAIR,CONTROLLER OUTDOOR AIR 8,Sensor,1
 Non-Parent Node Connection,NODE 174,CONTROLLER:OUTDOORAIR,CONTROLLER OUTDOOR AIR 11,Sensor,1
 Non-Parent Node Connection,NODE 170,CONTROLLER:OUTDOORAIR,CONTROLLER OUTDOOR AIR 11,Actuator,1
 Non-Parent Node Connection,NODE 171,CONTROLLER:OUTDOORAIR,CONTROLLER OUTDOOR AIR 11,Actuator,1
 Non-Parent Node Connection,NODE 165,CONTROLLER:OUTDOORAIR,CONTROLLER OUTDOOR AIR 11,Sensor,1
 Non-Parent Node Connection,NODE 109,CONTROLLER:OUTDOORAIR,CONTROLLER OUTDOOR AIR 6,Sensor,1
 Non-Parent Node Connection,NODE 105,CONTROLLER:OUTDOORAIR,CONTROLLER OUTDOOR AIR 6,Actuator,1
 Non-Parent Node Connection,NODE 106,CONTROLLER:OUTDOORAIR,CONTROLLER OUTDOOR AIR 6,Actuator,1
 Non-Parent Node Connection,NODE 100,CONTROLLER:OUTDOORAIR,CONTROLLER OUTDOOR AIR 6,Sensor,1
 Non-Parent Node Connection,NODE 122,CONTROLLER:OUTDOORAIR,CONTROLLER OUTDOOR AIR 7,Sensor,1
 Non-Parent Node Connection,NODE 118,CONTROLLER:OUTDOORAIR,CONTROLLER OUTDOOR AIR 7,Actuator,1
 Non-Parent Node Connection,NODE 119,CONTROLLER:OUTDOORAIR,CONTROLLER OUTDOOR AIR 7,Actuator,1
 Non-Parent Node Connection,NODE 113,CONTROLLER:OUTDOORAIR,CONTROLLER OUTDOOR AIR 7,Sensor,1
 Non-Parent Node Connection,NODE 291,CONTROLLER:OUTDOORAIR,CONTROLLER OUTDOOR AIR 20,Sensor,1
 Non-Parent Node Connection,NODE 287,CONTROLLER:OUTDOORAIR,CONTROLLER OUTDOOR AIR 20,Actuator,1
 Non-Parent Node Connection,NODE 288,CONTROLLER:OUTDOORAIR,CONTROLLER OUTDOOR AIR 20,Actuator,1
 Non-Parent Node Connection,NODE 282,CONTROLLER:OUTDOORAIR,CONTROLLER OUTDOOR AIR 20,Sensor,1
 Non-Parent Node Connection,NODE 226,CONTROLLER:OUTDOORAIR,CONTROLLER OUTDOOR AIR 15,Sensor,1
 Non-Parent Node Connection,NODE 222,CONTROLLER:OUTDOORAIR,CONTROLLER OUTDOOR AIR 15,Actuator,1
 Non-Parent Node Connection,NODE 223,CONTROLLER:OUTDOORAIR,CONTROLLER OUTDOOR AIR 15,Actuator,1
 Non-Parent Node Connection,NODE 217,CONTROLLER:OUTDOORAIR,CONTROLLER OUTDOOR AIR 15,Sensor,1
 Non-Parent Node Connection,NODE 239,CONTROLLER:OUTDOORAIR,CONTROLLER OUTDOOR AIR 16,Sensor,1
 Non-Parent Node Connection,NODE 235,CONTROLLER:OUTDOORAIR,CONTROLLER OUTDOOR AIR 16,Actuator,1
 Non-Parent Node Connection,NODE 236,CONTROLLER:OUTDOORAIR,CONTROLLER OUTDOOR AIR 16,Actuator,1
 Non-Parent Node Connection,NODE 230,CONTROLLER:OUTDOORAIR,CONTROLLER OUTDOOR AIR 16,Sensor,1
 Non-Parent Node Connection,NODE 187,CONTROLLER:OUTDOORAIR,CONTROLLER OUTDOOR AIR 12,Sensor,1
 Non-Parent Node Connection,NODE 183,CONTROLLER:OUTDOORAIR,CONTROLLER OUTDOOR AIR 12,Actuator,1
 Non-Parent Node Connection,NODE 184,CONTROLLER:OUTDOORAIR,CONTROLLER OUTDOOR AIR 12,Actuator,1
 Non-Parent Node Connection,NODE 178,CONTROLLER:OUTDOORAIR,CONTROLLER OUTDOOR AIR 12,Sensor,1
 Non-Parent Node Connection,NODE 200,CONTROLLER:OUTDOORAIR,CONTROLLER OUTDOOR AIR 13,Sensor,1
 Non-Parent Node Connection,NODE 196,CONTROLLER:OUTDOORAIR,CONTROLLER OUTDOOR AIR 13,Actuator,1
 Non-Parent Node Connection,NODE 197,CONTROLLER:OUTDOORAIR,CONTROLLER OUTDOOR AIR 13,Actuator,1
 Non-Parent Node Connection,NODE 191,CONTROLLER:OUTDOORAIR,CONTROLLER OUTDOOR AIR 13,Sensor,1
 Non-Parent Node Connection,NODE 213,CONTROLLER:OUTDOORAIR,CONTROLLER OUTDOOR AIR 14,Sensor,1
 Non-Parent Node Connection,NODE 209,CONTROLLER:OUTDOORAIR,CONTROLLER OUTDOOR AIR 14,Actuator,1
 Non-Parent Node Connection,NODE 210,CONTROLLER:OUTDOORAIR,CONTROLLER OUTDOOR AIR 14,Actuator,1
 Non-Parent Node Connection,NODE 204,CONTROLLER:OUTDOORAIR,CONTROLLER OUTDOOR AIR 14,Sensor,1
 Non-Parent Node Connection,NODE 304,CONTROLLER:OUTDOORAIR,CONTROLLER OUTDOOR AIR 21,Sensor,1
 Non-Parent Node Connection,NODE 300,CONTROLLER:OUTDOORAIR,CONTROLLER OUTDOOR AIR 21,Actuator,1
 Non-Parent Node Connection,NODE 301,CONTROLLER:OUTDOORAIR,CONTROLLER OUTDOOR AIR 21,Actuator,1
 Non-Parent Node Connection,NODE 295,CONTROLLER:OUTDOORAIR,CONTROLLER OUTDOOR AIR 21,Sensor,1
 Non-Parent Node Connection,NODE 278,CONTROLLER:OUTDOORAIR,CONTROLLER OUTDOOR AIR 19,Sensor,1
 Non-Parent Node Connection,NODE 274,CONTROLLER:OUTDOORAIR,CONTROLLER OUTDOOR AIR 19,Actuator,1
 Non-Parent Node Connection,NODE 275,CONTROLLER:OUTDOORAIR,CONTROLLER OUTDOOR AIR 19,Actuator,1
 Non-Parent Node Connection,NODE 269,CONTROLLER:OUTDOORAIR,CONTROLLER OUTDOOR AIR 19,Sensor,1
 Non-Parent Node Connection,NODE 317,CONTROLLER:OUTDOORAIR,CONTROLLER OUTDOOR AIR 22,Sensor,1
 Non-Parent Node Connection,NODE 313,CONTROLLER:OUTDOORAIR,CONTROLLER OUTDOOR AIR 22,Actuator,1
 Non-Parent Node Connection,NODE 314,CONTROLLER:OUTDOORAIR,CONTROLLER OUTDOOR AIR 22,Actuator,1
 Non-Parent Node Connection,NODE 308,CONTROLLER:OUTDOORAIR,CONTROLLER OUTDOOR AIR 22,Sensor,1
 Non-Parent Node Connection,NODE 252,CONTROLLER:OUTDOORAIR,CONTROLLER OUTDOOR AIR 17,Sensor,1
 Non-Parent Node Connection,NODE 248,CONTROLLER:OUTDOORAIR,CONTROLLER OUTDOOR AIR 17,Actuator,1
 Non-Parent Node Connection,NODE 249,CONTROLLER:OUTDOORAIR,CONTROLLER OUTDOOR AIR 17,Actuator,1
 Non-Parent Node Connection,NODE 243,CONTROLLER:OUTDOORAIR,CONTROLLER OUTDOOR AIR 17,Sensor,1
 Non-Parent Node Connection,NODE 265,CONTROLLER:OUTDOORAIR,CONTROLLER OUTDOOR AIR 18,Sensor,1
 Non-Parent Node Connection,NODE 261,CONTROLLER:OUTDOORAIR,CONTROLLER OUTDOOR AIR 18,Actuator,1
 Non-Parent Node Connection,NODE 262,CONTROLLER:OUTDOORAIR,CONTROLLER OUTDOOR AIR 18,Actuator,1
 Non-Parent Node Connection,NODE 256,CONTROLLER:OUTDOORAIR,CONTROLLER OUTDOOR AIR 18,Sensor,1
 Non-Parent Node Connection,NODE 148,COIL:COOLING:DX:SINGLESPEED,COIL COOLING DX SINGLE SPEED 9,Inlet,1
 Non-Parent Node Connection,NODE 147,COIL:COOLING:DX:SINGLESPEED,COIL COOLING DX SINGLE SPEED 9,Outlet,1
 Non-Parent Node Connection,NODE 83,COIL:COOLING:DX:SINGLESPEED,COIL COOLING DX SINGLE SPEED 4,Inlet,1
 Non-Parent Node Connection,NODE 82,COIL:COOLING:DX:SINGLESPEED,COIL COOLING DX SINGLE SPEED 4,Outlet,1
 Non-Parent Node Connection,NODE 96,COIL:COOLING:DX:SINGLESPEED,COIL COOLING DX SINGLE SPEED 5,Inlet,1
 Non-Parent Node Connection,NODE 95,COIL:COOLING:DX:SINGLESPEED,COIL COOLING DX SINGLE SPEED 5,Outlet,1
 Non-Parent Node Connection,NODE 45,COIL:COOLING:DX:SINGLESPEED,COIL COOLING DX SINGLE SPEED 1,Inlet,1
 Non-Parent Node Connection,NODE 44,COIL:COOLING:DX:SINGLESPEED,COIL COOLING DX SINGLE SPEED 1,Outlet,1
 Non-Parent Node Connection,NODE 57,COIL:COOLING:DX:SINGLESPEED,COIL COOLING DX SINGLE SPEED 2,Inlet,1
 Non-Parent Node Connection,NODE 56,COIL:COOLING:DX:SINGLESPEED,COIL COOLING DX SINGLE SPEED 2,Outlet,1
 Non-Parent Node Connection,NODE 70,COIL:COOLING:DX:SINGLESPEED,COIL COOLING DX SINGLE SPEED 3,Inlet,1
 Non-Parent Node Connection,NODE 69,COIL:COOLING:DX:SINGLESPEED,COIL COOLING DX SINGLE SPEED 3,Outlet,1
 Non-Parent Node Connection,NODE 161,COIL:COOLING:DX:SINGLESPEED,COIL COOLING DX SINGLE SPEED 10,Inlet,1
 Non-Parent Node Connection,NODE 160,COIL:COOLING:DX:SINGLESPEED,COIL COOLING DX SINGLE SPEED 10,Outlet,1
 Non-Parent Node Connection,NODE 135,COIL:COOLING:DX:SINGLESPEED,COIL COOLING DX SINGLE SPEED 8,Inlet,1
 Non-Parent Node Connection,NODE 134,COIL:COOLING:DX:SINGLESPEED,COIL COOLING DX SINGLE SPEED 8,Outlet,1
 Non-Parent Node Connection,NODE 174,COIL:COOLING:DX:SINGLESPEED,COIL COOLING DX SINGLE SPEED 11,Inlet,1
 Non-Parent Node Connection,NODE 173,COIL:COOLING:DX:SINGLESPEED,COIL COOLING DX SINGLE SPEED 11,Outlet,1
 Non-Parent Node Connection,NODE 109,COIL:COOLING:DX:SINGLESPEED,COIL COOLING DX SINGLE SPEED 6,Inlet,1
 Non-Parent Node Connection,NODE 108,COIL:COOLING:DX:SINGLESPEED,COIL COOLING DX SINGLE SPEED 6,Outlet,1
 Non-Parent Node Connection,NODE 122,COIL:COOLING:DX:SINGLESPEED,COIL COOLING DX SINGLE SPEED 7,Inlet,1
 Non-Parent Node Connection,NODE 121,COIL:COOLING:DX:SINGLESPEED,COIL COOLING DX SINGLE SPEED 7,Outlet,1
 Non-Parent Node Connection,NODE 291,COIL:COOLING:DX:SINGLESPEED,COIL COOLING DX SINGLE SPEED 20,Inlet,1
 Non-Parent Node Connection,NODE 290,COIL:COOLING:DX:SINGLESPEED,COIL COOLING DX SINGLE SPEED 20,Outlet,1
 Non-Parent Node Connection,NODE 226,COIL:COOLING:DX:SINGLESPEED,COIL COOLING DX SINGLE SPEED 15,Inlet,1
 Non-Parent Node Connection,NODE 225,COIL:COOLING:DX:SINGLESPEED,COIL COOLING DX SINGLE SPEED 15,Outlet,1
 Non-Parent Node Connection,NODE 239,COIL:COOLING:DX:SINGLESPEED,COIL COOLING DX SINGLE SPEED 16,Inlet,1
 Non-Parent Node Connection,NODE 238,COIL:COOLING:DX:SINGLESPEED,COIL COOLING DX SINGLE SPEED 16,Outlet,1
 Non-Parent Node Connection,NODE 187,COIL:COOLING:DX:SINGLESPEED,COIL COOLING DX SINGLE SPEED 12,Inlet,1
 Non-Parent Node Connection,NODE 186,COIL:COOLING:DX:SINGLESPEED,COIL COOLING DX SINGLE SPEED 12,Outlet,1
 Non-Parent Node Connection,NODE 200,COIL:COOLING:DX:SINGLESPEED,COIL COOLING DX SINGLE SPEED 13,Inlet,1
 Non-Parent Node Connection,NODE 199,COIL:COOLING:DX:SINGLESPEED,COIL COOLING DX SINGLE SPEED 13,Outlet,1
 Non-Parent Node Connection,NODE 213,COIL:COOLING:DX:SINGLESPEED,COIL COOLING DX SINGLE SPEED 14,Inlet,1
 Non-Parent Node Connection,NODE 212,COIL:COOLING:DX:SINGLESPEED,COIL COOLING DX SINGLE SPEED 14,Outlet,1
 Non-Parent Node Connection,NODE 304,COIL:COOLING:DX:SINGLESPEED,COIL COOLING DX SINGLE SPEED 21,Inlet,1
 Non-Parent Node Connection,NODE 303,COIL:COOLING:DX:SINGLESPEED,COIL COOLING DX SINGLE SPEED 21,Outlet,1
 Non-Parent Node Connection,NODE 278,COIL:COOLING:DX:SINGLESPEED,COIL COOLING DX SINGLE SPEED 19,Inlet,1
 Non-Parent Node Connection,NODE 277,COIL:COOLING:DX:SINGLESPEED,COIL COOLING DX SINGLE SPEED 19,Outlet,1
 Non-Parent Node Connection,NODE 317,COIL:COOLING:DX:SINGLESPEED,COIL COOLING DX SINGLE SPEED 22,Inlet,1
 Non-Parent Node Connection,NODE 316,COIL:COOLING:DX:SINGLESPEED,COIL COOLING DX SINGLE SPEED 22,Outlet,1
 Non-Parent Node Connection,NODE 252,COIL:COOLING:DX:SINGLESPEED,COIL COOLING DX SINGLE SPEED 17,Inlet,1
 Non-Parent Node Connection,NODE 251,COIL:COOLING:DX:SINGLESPEED,COIL COOLING DX SINGLE SPEED 17,Outlet,1
 Non-Parent Node Connection,NODE 265,COIL:COOLING:DX:SINGLESPEED,COIL COOLING DX SINGLE SPEED 18,Inlet,1
 Non-Parent Node Connection,NODE 264,COIL:COOLING:DX:SINGLESPEED,COIL COOLING DX SINGLE SPEED 18,Outlet,1
 Non-Parent Node Connection,NODE 147,COIL:HEATING:FUEL,COIL HEATING GAS 9,Inlet,1
 Non-Parent Node Connection,NODE 146,COIL:HEATING:FUEL,COIL HEATING GAS 9,Outlet,1
 Non-Parent Node Connection,NODE 146,COIL:HEATING:FUEL,COIL HEATING GAS 9,Sensor,1
 Non-Parent Node Connection,NODE 82,COIL:HEATING:FUEL,COIL HEATING GAS 4,Inlet,1
 Non-Parent Node Connection,NODE 81,COIL:HEATING:FUEL,COIL HEATING GAS 4,Outlet,1
 Non-Parent Node Connection,NODE 81,COIL:HEATING:FUEL,COIL HEATING GAS 4,Sensor,1
 Non-Parent Node Connection,NODE 95,COIL:HEATING:FUEL,COIL HEATING GAS 5,Inlet,1
 Non-Parent Node Connection,NODE 94,COIL:HEATING:FUEL,COIL HEATING GAS 5,Outlet,1
 Non-Parent Node Connection,NODE 94,COIL:HEATING:FUEL,COIL HEATING GAS 5,Sensor,1
 Non-Parent Node Connection,NODE 44,COIL:HEATING:FUEL,COIL HEATING GAS 1,Inlet,1
 Non-Parent Node Connection,NODE 43,COIL:HEATING:FUEL,COIL HEATING GAS 1,Outlet,1
 Non-Parent Node Connection,NODE 43,COIL:HEATING:FUEL,COIL HEATING GAS 1,Sensor,1
 Non-Parent Node Connection,NODE 56,COIL:HEATING:FUEL,COIL HEATING GAS 2,Inlet,1
 Non-Parent Node Connection,NODE 55,COIL:HEATING:FUEL,COIL HEATING GAS 2,Outlet,1
 Non-Parent Node Connection,NODE 55,COIL:HEATING:FUEL,COIL HEATING GAS 2,Sensor,1
 Non-Parent Node Connection,NODE 69,COIL:HEATING:FUEL,COIL HEATING GAS 3,Inlet,1
 Non-Parent Node Connection,NODE 68,COIL:HEATING:FUEL,COIL HEATING GAS 3,Outlet,1
 Non-Parent Node Connection,NODE 68,COIL:HEATING:FUEL,COIL HEATING GAS 3,Sensor,1
 Non-Parent Node Connection,NODE 160,COIL:HEATING:FUEL,COIL HEATING GAS 10,Inlet,1
 Non-Parent Node Connection,NODE 159,COIL:HEATING:FUEL,COIL HEATING GAS 10,Outlet,1
 Non-Parent Node Connection,NODE 159,COIL:HEATING:FUEL,COIL HEATING GAS 10,Sensor,1
 Non-Parent Node Connection,NODE 134,COIL:HEATING:FUEL,COIL HEATING GAS 8,Inlet,1
 Non-Parent Node Connection,NODE 133,COIL:HEATING:FUEL,COIL HEATING GAS 8,Outlet,1
 Non-Parent Node Connection,NODE 133,COIL:HEATING:FUEL,COIL HEATING GAS 8,Sensor,1
 Non-Parent Node Connection,NODE 173,COIL:HEATING:FUEL,COIL HEATING GAS 11,Inlet,1
 Non-Parent Node Connection,NODE 172,COIL:HEATING:FUEL,COIL HEATING GAS 11,Outlet,1
 Non-Parent Node Connection,NODE 172,COIL:HEATING:FUEL,COIL HEATING GAS 11,Sensor,1
 Non-Parent Node Connection,NODE 108,COIL:HEATING:FUEL,COIL HEATING GAS 6,Inlet,1
 Non-Parent Node Connection,NODE 107,COIL:HEATING:FUEL,COIL HEATING GAS 6,Outlet,1
 Non-Parent Node Connection,NODE 107,COIL:HEATING:FUEL,COIL HEATING GAS 6,Sensor,1
 Non-Parent Node Connection,NODE 121,COIL:HEATING:FUEL,COIL HEATING GAS 7,Inlet,1
 Non-Parent Node Connection,NODE 120,COIL:HEATING:FUEL,COIL HEATING GAS 7,Outlet,1
 Non-Parent Node Connection,NODE 120,COIL:HEATING:FUEL,COIL HEATING GAS 7,Sensor,1
 Non-Parent Node Connection,NODE 290,COIL:HEATING:FUEL,COIL HEATING GAS 20,Inlet,1
 Non-Parent Node Connection,NODE 289,COIL:HEATING:FUEL,COIL HEATING GAS 20,Outlet,1
 Non-Parent Node Connection,NODE 289,COIL:HEATING:FUEL,COIL HEATING GAS 20,Sensor,1
 Non-Parent Node Connection,NODE 225,COIL:HEATING:FUEL,COIL HEATING GAS 15,Inlet,1
 Non-Parent Node Connection,NODE 224,COIL:HEATING:FUEL,COIL HEATING GAS 15,Outlet,1
 Non-Parent Node Connection,NODE 224,COIL:HEATING:FUEL,COIL HEATING GAS 15,Sensor,1
 Non-Parent Node Connection,NODE 238,COIL:HEATING:FUEL,COIL HEATING GAS 16,Inlet,1
 Non-Parent Node Connection,NODE 237,COIL:HEATING:FUEL,COIL HEATING GAS 16,Outlet,1
 Non-Parent Node Connection,NODE 237,COIL:HEATING:FUEL,COIL HEATING GAS 16,Sensor,1
 Non-Parent Node Connection,NODE 186,COIL:HEATING:FUEL,COIL HEATING GAS 12,Inlet,1
 Non-Parent Node Connection,NODE 185,COIL:HEATING:FUEL,COIL HEATING GAS 12,Outlet,1
 Non-Parent Node Connection,NODE 185,COIL:HEATING:FUEL,COIL HEATING GAS 12,Sensor,1
 Non-Parent Node Connection,NODE 199,COIL:HEATING:FUEL,COIL HEATING GAS 13,Inlet,1
 Non-Parent Node Connection,NODE 198,COIL:HEATING:FUEL,COIL HEATING GAS 13,Outlet,1
 Non-Parent Node Connection,NODE 198,COIL:HEATING:FUEL,COIL HEATING GAS 13,Sensor,1
 Non-Parent Node Connection,NODE 212,COIL:HEATING:FUEL,COIL HEATING GAS 14,Inlet,1
 Non-Parent Node Connection,NODE 211,COIL:HEATING:FUEL,COIL HEATING GAS 14,Outlet,1
 Non-Parent Node Connection,NODE 211,COIL:HEATING:FUEL,COIL HEATING GAS 14,Sensor,1
 Non-Parent Node Connection,NODE 303,COIL:HEATING:FUEL,COIL HEATING GAS 21,Inlet,1
 Non-Parent Node Connection,NODE 302,COIL:HEATING:FUEL,COIL HEATING GAS 21,Outlet,1
 Non-Parent Node Connection,NODE 302,COIL:HEATING:FUEL,COIL HEATING GAS 21,Sensor,1
 Non-Parent Node Connection,NODE 277,COIL:HEATING:FUEL,COIL HEATING GAS 19,Inlet,1
 Non-Parent Node Connection,NODE 276,COIL:HEATING:FUEL,COIL HEATING GAS 19,Outlet,1
 Non-Parent Node Connection,NODE 276,COIL:HEATING:FUEL,COIL HEATING GAS 19,Sensor,1
 Non-Parent Node Connection,NODE 316,COIL:HEATING:FUEL,COIL HEATING GAS 22,Inlet,1
 Non-Parent Node Connection,NODE 315,COIL:HEATING:FUEL,COIL HEATING GAS 22,Outlet,1
 Non-Parent Node Connection,NODE 315,COIL:HEATING:FUEL,COIL HEATING GAS 22,Sensor,1
 Non-Parent Node Connection,NODE 251,COIL:HEATING:FUEL,COIL HEATING GAS 17,Inlet,1
 Non-Parent Node Connection,NODE 250,COIL:HEATING:FUEL,COIL HEATING GAS 17,Outlet,1
 Non-Parent Node Connection,NODE 250,COIL:HEATING:FUEL,COIL HEATING GAS 17,Sensor,1
 Non-Parent Node Connection,NODE 264,COIL:HEATING:FUEL,COIL HEATING GAS 18,Inlet,1
 Non-Parent Node Connection,NODE 263,COIL:HEATING:FUEL,COIL HEATING GAS 18,Outlet,1
 Non-Parent Node Connection,NODE 263,COIL:HEATING:FUEL,COIL HEATING GAS 18,Sensor,1
 Non-Parent Node Connection,NODE 25,BOILER:HOTWATER,PRIMARY BOILER,Inlet,1
 Non-Parent Node Connection,NODE 30,BOILER:HOTWATER,PRIMARY BOILER,Outlet,1
 Non-Parent Node Connection,NODE 31,BOILER:HOTWATER,SECONDARY BOILER,Inlet,1
 Non-Parent Node Connection,NODE 32,BOILER:HOTWATER,SECONDARY BOILER,Outlet,1
 Non-Parent Node Connection,NODE 23,PUMP:VARIABLESPEED,PUMP VARIABLE SPEED 1,Inlet,1
 Non-Parent Node Connection,NODE 29,PUMP:VARIABLESPEED,PUMP VARIABLE SPEED 1,Outlet,1
 Non-Parent Node Connection,NODE 321,PUMP:CONSTANTSPEED,SERVICE WATER LOOP PUMP,Inlet,1
 Non-Parent Node Connection,NODE 327,PUMP:CONSTANTSPEED,SERVICE WATER LOOP PUMP,Outlet,1
