! Program Version,EnergyPlus, Version 9.1.0-fafb9d5652, YMD=2019.10.28 16:18,
! Output:Meter Objects (applicable to this run)
Output:Meter,Electricity:Facility,hourly; !- [J]
Output:Meter:Cumulative,Electricity:Facility,hourly; !- [J]
Output:Meter,Electricity:Building,hourly; !- [J]
Output:Meter:Cumulative,Electricity:Building,hourly; !- [J]
Output:Meter,Electricity:Zone:STORY 1 EAST CORE SPACE ZN,hourly; !- [J]
Output:Meter:Cumulative,Electricity:Zone:STORY 1 EAST CORE SPACE ZN,hourly; !- [J]
Output:Meter,InteriorLights:Electricity,hourly; !- [J]
Output:Meter:Cumulative,InteriorLights:Electricity,hourly; !- [J]
Output:Meter,InteriorLights:Electricity:Zone:STORY 1 EAST CORE SPACE ZN,hourly; !- [J]
Output:Meter:Cumulative,InteriorLights:Electricity:Zone:STORY 1 EAST CORE SPACE ZN,hourly; !- [J]
Output:Meter,General:InteriorLights:Electricity,hourly; !- [J]
Output:Meter:Cumulative,General:InteriorLights:Electricity,hourly; !- [J]
Output:Meter,Electricity:Zone:STORY 1 EAST LEFT PERIMETER SPACE ZN,hourly; !- [J]
Output:Meter:Cumulative,Electricity:Zone:STORY 1 EAST LEFT PERIMETER SPACE ZN,hourly; !- [J]
Output:Meter,InteriorLights:Electricity:Zone:STORY 1 EAST LEFT PERIMETER SPACE ZN,hourly; !- [J]
Output:Meter:Cumulative,InteriorLights:Electricity:Zone:STORY 1 EAST LEFT PERIMETER SPACE ZN,hourly; !- [J]
Output:Meter,Electricity:Zone:STORY 1 EAST RIGHT PERIMETER SPACE ZN,hourly; !- [J]
Output:Meter:Cumulative,Electricity:Zone:STORY 1 EAST RIGHT PERIMETER SPACE ZN,hourly; !- [J]
Output:Meter,InteriorLights:Electricity:Zone:STORY 1 EAST RIGHT PERIMETER SPACE ZN,hourly; !- [J]
Output:Meter:Cumulative,InteriorLights:Electricity:Zone:STORY 1 EAST RIGHT PERIMETER SPACE ZN,hourly; !- [J]
Output:Meter,Electricity:Zone:STORY 1 NORTH LEFT PERIMETER SPACE ZN,hourly; !- [J]
Output:Meter:Cumulative,Electricity:Zone:STORY 1 NORTH LEFT PERIMETER SPACE ZN,hourly; !- [J]
Output:Meter,InteriorLights:Electricity:Zone:STORY 1 NORTH LEFT PERIMETER SPACE ZN,hourly; !- [J]
Output:Meter:Cumulative,InteriorLights:Electricity:Zone:STORY 1 NORTH LEFT PERIMETER SPACE ZN,hourly; !- [J]
Output:Meter,Electricity:Zone:STORY 1 NORTH LOWER PERIMETER SPACE ZN,hourly; !- [J]
Output:Meter:Cumulative,Electricity:Zone:STORY 1 NORTH LOWER PERIMETER SPACE ZN,hourly; !- [J]
Output:Meter,InteriorLights:Electricity:Zone:STORY 1 NORTH LOWER PERIMETER SPACE ZN,hourly; !- [J]
Output:Meter:Cumulative,InteriorLights:Electricity:Zone:STORY 1 NORTH LOWER PERIMETER SPACE ZN,hourly; !- [J]
Output:Meter,Electricity:Zone:STORY 1 NORTH RIGHT PERIMETER SPACE ZN,hourly; !- [J]
Output:Meter:Cumulative,Electricity:Zone:STORY 1 NORTH RIGHT PERIMETER SPACE ZN,hourly; !- [J]
Output:Meter,InteriorLights:Electricity:Zone:STORY 1 NORTH RIGHT PERIMETER SPACE ZN,hourly; !- [J]
Output:Meter:Cumulative,InteriorLights:Electricity:Zone:STORY 1 NORTH RIGHT PERIMETER SPACE ZN,hourly; !- [J]
Output:Meter,Electricity:Zone:STORY 1 SOUTH CORE SPACE ZN,hourly; !- [J]
Output:Meter:Cumulative,Electricity:Zone:STORY 1 SOUTH CORE SPACE ZN,hourly; !- [J]
Output:Meter,InteriorLights:Electricity:Zone:STORY 1 SOUTH CORE SPACE ZN,hourly; !- [J]
Output:Meter:Cumulative,InteriorLights:Electricity:Zone:STORY 1 SOUTH CORE SPACE ZN,hourly; !- [J]
Output:Meter,Electricity:Zone:STORY 1 SOUTH LOWER PERIMETER SPACE ZN,hourly; !- [J]
Output:Meter:Cumulative,Electricity:Zone:STORY 1 SOUTH LOWER PERIMETER SPACE ZN,hourly; !- [J]
Output:Meter,InteriorLights:Electricity:Zone:STORY 1 SOUTH LOWER PERIMETER SPACE ZN,hourly; !- [J]
Output:Meter:Cumulative,InteriorLights:Electricity:Zone:STORY 1 SOUTH LOWER PERIMETER SPACE ZN,hourly; !- [J]
Output:Meter,Electricity:Zone:STORY 1 WEST CORE SPACE ZN,hourly; !- [J]
Output:Meter:Cumulative,Electricity:Zone:STORY 1 WEST CORE SPACE ZN,hourly; !- [J]
Output:Meter,InteriorLights:Electricity:Zone:STORY 1 WEST CORE SPACE ZN,hourly; !- [J]
Output:Meter:Cumulative,InteriorLights:Electricity:Zone:STORY 1 WEST CORE SPACE ZN,hourly; !- [J]
Output:Meter,Electricity:Zone:STORY 1 WEST LEFT PERIMETER SPACE ZN,hourly; !- [J]
Output:Meter:Cumulative,Electricity:Zone:STORY 1 WEST LEFT PERIMETER SPACE ZN,hourly; !- [J]
Output:Meter,InteriorLights:Electricity:Zone:STORY 1 WEST LEFT PERIMETER SPACE ZN,hourly; !- [J]
Output:Meter:Cumulative,InteriorLights:Electricity:Zone:STORY 1 WEST LEFT PERIMETER SPACE ZN,hourly; !- [J]
Output:Meter,Electricity:Zone:STORY 1 WEST RIGHT PERIMETER SPACE ZN,hourly; !- [J]
Output:Meter:Cumulative,Electricity:Zone:STORY 1 WEST RIGHT PERIMETER SPACE ZN,hourly; !- [J]
Output:Meter,InteriorLights:Electricity:Zone:STORY 1 WEST RIGHT PERIMETER SPACE ZN,hourly; !- [J]
Output:Meter:Cumulative,InteriorLights:Electricity:Zone:STORY 1 WEST RIGHT PERIMETER SPACE ZN,hourly; !- [J]
Output:Meter,Electricity:Zone:STORY 2 EAST CORE SPACE ZN,hourly; !- [J]
Output:Meter:Cumulative,Electricity:Zone:STORY 2 EAST CORE SPACE ZN,hourly; !- [J]
Output:Meter,InteriorLights:Electricity:Zone:STORY 2 EAST CORE SPACE ZN,hourly; !- [J]
Output:Meter:Cumulative,InteriorLights:Electricity:Zone:STORY 2 EAST CORE SPACE ZN,hourly; !- [J]
Output:Meter,Electricity:Zone:STORY 2 EAST LEFT PERIMETER SPACE ZN,hourly; !- [J]
Output:Meter:Cumulative,Electricity:Zone:STORY 2 EAST LEFT PERIMETER SPACE ZN,hourly; !- [J]
Output:Meter,InteriorLights:Electricity:Zone:STORY 2 EAST LEFT PERIMETER SPACE ZN,hourly; !- [J]
Output:Meter:Cumulative,InteriorLights:Electricity:Zone:STORY 2 EAST LEFT PERIMETER SPACE ZN,hourly; !- [J]
Output:Meter,Electricity:Zone:STORY 2 EAST RIGHT PERIMETER SPACE ZN,hourly; !- [J]
Output:Meter:Cumulative,Electricity:Zone:STORY 2 EAST RIGHT PERIMETER SPACE ZN,hourly; !- [J]
Output:Meter,InteriorLights:Electricity:Zone:STORY 2 EAST RIGHT PERIMETER SPACE ZN,hourly; !- [J]
Output:Meter:Cumulative,InteriorLights:Electricity:Zone:STORY 2 EAST RIGHT PERIMETER SPACE ZN,hourly; !- [J]
Output:Meter,Electricity:Zone:STORY 2 NORTH LEFT PERIMETER SPACE ZN,hourly; !- [J]
Output:Meter:Cumulative,Electricity:Zone:STORY 2 NORTH LEFT PERIMETER SPACE ZN,hourly; !- [J]
Output:Meter,InteriorLights:Electricity:Zone:STORY 2 NORTH LEFT PERIMETER SPACE ZN,hourly; !- [J]
Output:Meter:Cumulative,InteriorLights:Electricity:Zone:STORY 2 NORTH LEFT PERIMETER SPACE ZN,hourly; !- [J]
Output:Meter,Electricity:Zone:STORY 2 NORTH LOWER PERIMETER SPACE ZN,hourly; !- [J]
Output:Meter:Cumulative,Electricity:Zone:STORY 2 NORTH LOWER PERIMETER SPACE ZN,hourly; !- [J]
Output:Meter,InteriorLights:Electricity:Zone:STORY 2 NORTH LOWER PERIMETER SPACE ZN,hourly; !- [J]
Output:Meter:Cumulative,InteriorLights:Electricity:Zone:STORY 2 NORTH LOWER PERIMETER SPACE ZN,hourly; !- [J]
Output:Meter,Electricity:Zone:STORY 2 NORTH RIGHT PERIMETER SPACE ZN,hourly; !- [J]
Output:Meter:Cumulative,Electricity:Zone:STORY 2 NORTH RIGHT PERIMETER SPACE ZN,hourly; !- [J]
Output:Meter,InteriorLights:Electricity:Zone:STORY 2 NORTH RIGHT PERIMETER SPACE ZN,hourly; !- [J]
Output:Meter:Cumulative,InteriorLights:Electricity:Zone:STORY 2 NORTH RIGHT PERIMETER SPACE ZN,hourly; !- [J]
Output:Meter,Electricity:Zone:STORY 2 SOUTH CORE SPACE ZN,hourly; !- [J]
Output:Meter:Cumulative,Electricity:Zone:STORY 2 SOUTH CORE SPACE ZN,hourly; !- [J]
Output:Meter,InteriorLights:Electricity:Zone:STORY 2 SOUTH CORE SPACE ZN,hourly; !- [J]
Output:Meter:Cumulative,InteriorLights:Electricity:Zone:STORY 2 SOUTH CORE SPACE ZN,hourly; !- [J]
Output:Meter,Electricity:Zone:STORY 2 SOUTH LOWER PERIMETER SPACE ZN,hourly; !- [J]
Output:Meter:Cumulative,Electricity:Zone:STORY 2 SOUTH LOWER PERIMETER SPACE ZN,hourly; !- [J]
Output:Meter,InteriorLights:Electricity:Zone:STORY 2 SOUTH LOWER PERIMETER SPACE ZN,hourly; !- [J]
Output:Meter:Cumulative,InteriorLights:Electricity:Zone:STORY 2 SOUTH LOWER PERIMETER SPACE ZN,hourly; !- [J]
Output:Meter,Electricity:Zone:STORY 2 WEST CORE SPACE ZN,hourly; !- [J]
Output:Meter:Cumulative,Electricity:Zone:STORY 2 WEST CORE SPACE ZN,hourly; !- [J]
Output:Meter,InteriorLights:Electricity:Zone:STORY 2 WEST CORE SPACE ZN,hourly; !- [J]
Output:Meter:Cumulative,InteriorLights:Electricity:Zone:STORY 2 WEST CORE SPACE ZN,hourly; !- [J]
Output:Meter,Electricity:Zone:STORY 2 WEST LEFT PERIMETER SPACE ZN,hourly; !- [J]
Output:Meter:Cumulative,Electricity:Zone:STORY 2 WEST LEFT PERIMETER SPACE ZN,hourly; !- [J]
Output:Meter,InteriorLights:Electricity:Zone:STORY 2 WEST LEFT PERIMETER SPACE ZN,hourly; !- [J]
Output:Meter:Cumulative,InteriorLights:Electricity:Zone:STORY 2 WEST LEFT PERIMETER SPACE ZN,hourly; !- [J]
Output:Meter,Electricity:Zone:STORY 2 WEST RIGHT PERIMETER SPACE ZN,hourly; !- [J]
Output:Meter:Cumulative,Electricity:Zone:STORY 2 WEST RIGHT PERIMETER SPACE ZN,hourly; !- [J]
Output:Meter,InteriorLights:Electricity:Zone:STORY 2 WEST RIGHT PERIMETER SPACE ZN,hourly; !- [J]
Output:Meter:Cumulative,InteriorLights:Electricity:Zone:STORY 2 WEST RIGHT PERIMETER SPACE ZN,hourly; !- [J]
Output:Meter,InteriorEquipment:Electricity,hourly; !- [J]
Output:Meter:Cumulative,InteriorEquipment:Electricity,hourly; !- [J]
Output:Meter,InteriorEquipment:Electricity:Zone:STORY 1 EAST CORE SPACE ZN,hourly; !- [J]
Output:Meter:Cumulative,InteriorEquipment:Electricity:Zone:STORY 1 EAST CORE SPACE ZN,hourly; !- [J]
Output:Meter,General:InteriorEquipment:Electricity,hourly; !- [J]
Output:Meter:Cumulative,General:InteriorEquipment:Electricity,hourly; !- [J]
Output:Meter,InteriorEquipment:Electricity:Zone:STORY 1 EAST LEFT PERIMETER SPACE ZN,hourly; !- [J]
Output:Meter:Cumulative,InteriorEquipment:Electricity:Zone:STORY 1 EAST LEFT PERIMETER SPACE ZN,hourly; !- [J]
Output:Meter,InteriorEquipment:Electricity:Zone:STORY 1 EAST RIGHT PERIMETER SPACE ZN,hourly; !- [J]
Output:Meter:Cumulative,InteriorEquipment:Electricity:Zone:STORY 1 EAST RIGHT PERIMETER SPACE ZN,hourly; !- [J]
Output:Meter,InteriorEquipment:Electricity:Zone:STORY 1 NORTH LEFT PERIMETER SPACE ZN,hourly; !- [J]
Output:Meter:Cumulative,InteriorEquipment:Electricity:Zone:STORY 1 NORTH LEFT PERIMETER SPACE ZN,hourly; !- [J]
Output:Meter,InteriorEquipment:Electricity:Zone:STORY 1 NORTH LOWER PERIMETER SPACE ZN,hourly; !- [J]
Output:Meter:Cumulative,InteriorEquipment:Electricity:Zone:STORY 1 NORTH LOWER PERIMETER SPACE ZN,hourly; !- [J]
Output:Meter,InteriorEquipment:Electricity:Zone:STORY 1 NORTH RIGHT PERIMETER SPACE ZN,hourly; !- [J]
Output:Meter:Cumulative,InteriorEquipment:Electricity:Zone:STORY 1 NORTH RIGHT PERIMETER SPACE ZN,hourly; !- [J]
Output:Meter,InteriorEquipment:Electricity:Zone:STORY 1 SOUTH CORE SPACE ZN,hourly; !- [J]
Output:Meter:Cumulative,InteriorEquipment:Electricity:Zone:STORY 1 SOUTH CORE SPACE ZN,hourly; !- [J]
Output:Meter,InteriorEquipment:Electricity:Zone:STORY 1 SOUTH LOWER PERIMETER SPACE ZN,hourly; !- [J]
Output:Meter:Cumulative,InteriorEquipment:Electricity:Zone:STORY 1 SOUTH LOWER PERIMETER SPACE ZN,hourly; !- [J]
Output:Meter,InteriorEquipment:Electricity:Zone:STORY 1 WEST CORE SPACE ZN,hourly; !- [J]
Output:Meter:Cumulative,InteriorEquipment:Electricity:Zone:STORY 1 WEST CORE SPACE ZN,hourly; !- [J]
Output:Meter,InteriorEquipment:Electricity:Zone:STORY 1 WEST LEFT PERIMETER SPACE ZN,hourly; !- [J]
Output:Meter:Cumulative,InteriorEquipment:Electricity:Zone:STORY 1 WEST LEFT PERIMETER SPACE ZN,hourly; !- [J]
Output:Meter,InteriorEquipment:Electricity:Zone:STORY 1 WEST RIGHT PERIMETER SPACE ZN,hourly; !- [J]
Output:Meter:Cumulative,InteriorEquipment:Electricity:Zone:STORY 1 WEST RIGHT PERIMETER SPACE ZN,hourly; !- [J]
Output:Meter,InteriorEquipment:Electricity:Zone:STORY 2 EAST CORE SPACE ZN,hourly; !- [J]
Output:Meter:Cumulative,InteriorEquipment:Electricity:Zone:STORY 2 EAST CORE SPACE ZN,hourly; !- [J]
Output:Meter,InteriorEquipment:Electricity:Zone:STORY 2 EAST LEFT PERIMETER SPACE ZN,hourly; !- [J]
Output:Meter:Cumulative,InteriorEquipment:Electricity:Zone:STORY 2 EAST LEFT PERIMETER SPACE ZN,hourly; !- [J]
Output:Meter,InteriorEquipment:Electricity:Zone:STORY 2 EAST RIGHT PERIMETER SPACE ZN,hourly; !- [J]
Output:Meter:Cumulative,InteriorEquipment:Electricity:Zone:STORY 2 EAST RIGHT PERIMETER SPACE ZN,hourly; !- [J]
Output:Meter,InteriorEquipment:Electricity:Zone:STORY 2 NORTH LEFT PERIMETER SPACE ZN,hourly; !- [J]
Output:Meter:Cumulative,InteriorEquipment:Electricity:Zone:STORY 2 NORTH LEFT PERIMETER SPACE ZN,hourly; !- [J]
Output:Meter,InteriorEquipment:Electricity:Zone:STORY 2 NORTH LOWER PERIMETER SPACE ZN,hourly; !- [J]
Output:Meter:Cumulative,InteriorEquipment:Electricity:Zone:STORY 2 NORTH LOWER PERIMETER SPACE ZN,hourly; !- [J]
Output:Meter,InteriorEquipment:Electricity:Zone:STORY 2 NORTH RIGHT PERIMETER SPACE ZN,hourly; !- [J]
Output:Meter:Cumulative,InteriorEquipment:Electricity:Zone:STORY 2 NORTH RIGHT PERIMETER SPACE ZN,hourly; !- [J]
Output:Meter,InteriorEquipment:Electricity:Zone:STORY 2 SOUTH CORE SPACE ZN,hourly; !- [J]
Output:Meter:Cumulative,InteriorEquipment:Electricity:Zone:STORY 2 SOUTH CORE SPACE ZN,hourly; !- [J]
Output:Meter,InteriorEquipment:Electricity:Zone:STORY 2 SOUTH LOWER PERIMETER SPACE ZN,hourly; !- [J]
Output:Meter:Cumulative,InteriorEquipment:Electricity:Zone:STORY 2 SOUTH LOWER PERIMETER SPACE ZN,hourly; !- [J]
Output:Meter,InteriorEquipment:Electricity:Zone:STORY 2 WEST CORE SPACE ZN,hourly; !- [J]
Output:Meter:Cumulative,InteriorEquipment:Electricity:Zone:STORY 2 WEST CORE SPACE ZN,hourly; !- [J]
Output:Meter,InteriorEquipment:Electricity:Zone:STORY 2 WEST LEFT PERIMETER SPACE ZN,hourly; !- [J]
Output:Meter:Cumulative,InteriorEquipment:Electricity:Zone:STORY 2 WEST LEFT PERIMETER SPACE ZN,hourly; !- [J]
Output:Meter,InteriorEquipment:Electricity:Zone:STORY 2 WEST RIGHT PERIMETER SPACE ZN,hourly; !- [J]
Output:Meter:Cumulative,InteriorEquipment:Electricity:Zone:STORY 2 WEST RIGHT PERIMETER SPACE ZN,hourly; !- [J]
Output:Meter,EnergyTransfer:Facility,hourly; !- [J]
Output:Meter:Cumulative,EnergyTransfer:Facility,hourly; !- [J]
Output:Meter,EnergyTransfer:Building,hourly; !- [J]
Output:Meter:Cumulative,EnergyTransfer:Building,hourly; !- [J]
Output:Meter,EnergyTransfer:Zone:STORY 1 EAST CORE SPACE ZN,hourly; !- [J]
Output:Meter:Cumulative,EnergyTransfer:Zone:STORY 1 EAST CORE SPACE ZN,hourly; !- [J]
Output:Meter,Heating:EnergyTransfer,hourly; !- [J]
Output:Meter:Cumulative,Heating:EnergyTransfer,hourly; !- [J]
Output:Meter,Heating:EnergyTransfer:Zone:STORY 1 EAST CORE SPACE ZN,hourly; !- [J]
Output:Meter:Cumulative,Heating:EnergyTransfer:Zone:STORY 1 EAST CORE SPACE ZN,hourly; !- [J]
Output:Meter,Cooling:EnergyTransfer,hourly; !- [J]
Output:Meter:Cumulative,Cooling:EnergyTransfer,hourly; !- [J]
Output:Meter,Cooling:EnergyTransfer:Zone:STORY 1 EAST CORE SPACE ZN,hourly; !- [J]
Output:Meter:Cumulative,Cooling:EnergyTransfer:Zone:STORY 1 EAST CORE SPACE ZN,hourly; !- [J]
Output:Meter,EnergyTransfer:Zone:STORY 1 EAST LEFT PERIMETER SPACE ZN,hourly; !- [J]
Output:Meter:Cumulative,EnergyTransfer:Zone:STORY 1 EAST LEFT PERIMETER SPACE ZN,hourly; !- [J]
Output:Meter,Heating:EnergyTransfer:Zone:STORY 1 EAST LEFT PERIMETER SPACE ZN,hourly; !- [J]
Output:Meter:Cumulative,Heating:EnergyTransfer:Zone:STORY 1 EAST LEFT PERIMETER SPACE ZN,hourly; !- [J]
Output:Meter,Cooling:EnergyTransfer:Zone:STORY 1 EAST LEFT PERIMETER SPACE ZN,hourly; !- [J]
Output:Meter:Cumulative,Cooling:EnergyTransfer:Zone:STORY 1 EAST LEFT PERIMETER SPACE ZN,hourly; !- [J]
Output:Meter,EnergyTransfer:Zone:STORY 1 EAST RIGHT PERIMETER SPACE ZN,hourly; !- [J]
Output:Meter:Cumulative,EnergyTransfer:Zone:STORY 1 EAST RIGHT PERIMETER SPACE ZN,hourly; !- [J]
Output:Meter,Heating:EnergyTransfer:Zone:STORY 1 EAST RIGHT PERIMETER SPACE ZN,hourly; !- [J]
Output:Meter:Cumulative,Heating:EnergyTransfer:Zone:STORY 1 EAST RIGHT PERIMETER SPACE ZN,hourly; !- [J]
Output:Meter,Cooling:EnergyTransfer:Zone:STORY 1 EAST RIGHT PERIMETER SPACE ZN,hourly; !- [J]
Output:Meter:Cumulative,Cooling:EnergyTransfer:Zone:STORY 1 EAST RIGHT PERIMETER SPACE ZN,hourly; !- [J]
Output:Meter,EnergyTransfer:Zone:STORY 1 NORTH LEFT PERIMETER SPACE ZN,hourly; !- [J]
Output:Meter:Cumulative,EnergyTransfer:Zone:STORY 1 NORTH LEFT PERIMETER SPACE ZN,hourly; !- [J]
Output:Meter,Heating:EnergyTransfer:Zone:STORY 1 NORTH LEFT PERIMETER SPACE ZN,hourly; !- [J]
Output:Meter:Cumulative,Heating:EnergyTransfer:Zone:STORY 1 NORTH LEFT PERIMETER SPACE ZN,hourly; !- [J]
Output:Meter,Cooling:EnergyTransfer:Zone:STORY 1 NORTH LEFT PERIMETER SPACE ZN,hourly; !- [J]
Output:Meter:Cumulative,Cooling:EnergyTransfer:Zone:STORY 1 NORTH LEFT PERIMETER SPACE ZN,hourly; !- [J]
Output:Meter,EnergyTransfer:Zone:STORY 1 NORTH LOWER PERIMETER SPACE ZN,hourly; !- [J]
Output:Meter:Cumulative,EnergyTransfer:Zone:STORY 1 NORTH LOWER PERIMETER SPACE ZN,hourly; !- [J]
Output:Meter,Heating:EnergyTransfer:Zone:STORY 1 NORTH LOWER PERIMETER SPACE ZN,hourly; !- [J]
Output:Meter:Cumulative,Heating:EnergyTransfer:Zone:STORY 1 NORTH LOWER PERIMETER SPACE ZN,hourly; !- [J]
Output:Meter,Cooling:EnergyTransfer:Zone:STORY 1 NORTH LOWER PERIMETER SPACE ZN,hourly; !- [J]
Output:Meter:Cumulative,Cooling:EnergyTransfer:Zone:STORY 1 NORTH LOWER PERIMETER SPACE ZN,hourly; !- [J]
Output:Meter,EnergyTransfer:Zone:STORY 1 NORTH RIGHT PERIMETER SPACE ZN,hourly; !- [J]
Output:Meter:Cumulative,EnergyTransfer:Zone:STORY 1 NORTH RIGHT PERIMETER SPACE ZN,hourly; !- [J]
Output:Meter,Heating:EnergyTransfer:Zone:STORY 1 NORTH RIGHT PERIMETER SPACE ZN,hourly; !- [J]
Output:Meter:Cumulative,Heating:EnergyTransfer:Zone:STORY 1 NORTH RIGHT PERIMETER SPACE ZN,hourly; !- [J]
Output:Meter,Cooling:EnergyTransfer:Zone:STORY 1 NORTH RIGHT PERIMETER SPACE ZN,hourly; !- [J]
Output:Meter:Cumulative,Cooling:EnergyTransfer:Zone:STORY 1 NORTH RIGHT PERIMETER SPACE ZN,hourly; !- [J]
Output:Meter,EnergyTransfer:Zone:STORY 1 SOUTH CORE SPACE ZN,hourly; !- [J]
Output:Meter:Cumulative,EnergyTransfer:Zone:STORY 1 SOUTH CORE SPACE ZN,hourly; !- [J]
Output:Meter,Heating:EnergyTransfer:Zone:STORY 1 SOUTH CORE SPACE ZN,hourly; !- [J]
Output:Meter:Cumulative,Heating:EnergyTransfer:Zone:STORY 1 SOUTH CORE SPACE ZN,hourly; !- [J]
Output:Meter,Cooling:EnergyTransfer:Zone:STORY 1 SOUTH CORE SPACE ZN,hourly; !- [J]
Output:Meter:Cumulative,Cooling:EnergyTransfer:Zone:STORY 1 SOUTH CORE SPACE ZN,hourly; !- [J]
Output:Meter,EnergyTransfer:Zone:STORY 1 SOUTH LOWER PERIMETER SPACE ZN,hourly; !- [J]
Output:Meter:Cumulative,EnergyTransfer:Zone:STORY 1 SOUTH LOWER PERIMETER SPACE ZN,hourly; !- [J]
Output:Meter,Heating:EnergyTransfer:Zone:STORY 1 SOUTH LOWER PERIMETER SPACE ZN,hourly; !- [J]
Output:Meter:Cumulative,Heating:EnergyTransfer:Zone:STORY 1 SOUTH LOWER PERIMETER SPACE ZN,hourly; !- [J]
Output:Meter,Cooling:EnergyTransfer:Zone:STORY 1 SOUTH LOWER PERIMETER SPACE ZN,hourly; !- [J]
Output:Meter:Cumulative,Cooling:EnergyTransfer:Zone:STORY 1 SOUTH LOWER PERIMETER SPACE ZN,hourly; !- [J]
Output:Meter,EnergyTransfer:Zone:STORY 1 WEST CORE SPACE ZN,hourly; !- [J]
Output:Meter:Cumulative,EnergyTransfer:Zone:STORY 1 WEST CORE SPACE ZN,hourly; !- [J]
Output:Meter,Heating:EnergyTransfer:Zone:STORY 1 WEST CORE SPACE ZN,hourly; !- [J]
Output:Meter:Cumulative,Heating:EnergyTransfer:Zone:STORY 1 WEST CORE SPACE ZN,hourly; !- [J]
Output:Meter,Cooling:EnergyTransfer:Zone:STORY 1 WEST CORE SPACE ZN,hourly; !- [J]
Output:Meter:Cumulative,Cooling:EnergyTransfer:Zone:STORY 1 WEST CORE SPACE ZN,hourly; !- [J]
Output:Meter,EnergyTransfer:Zone:STORY 1 WEST LEFT PERIMETER SPACE ZN,hourly; !- [J]
Output:Meter:Cumulative,EnergyTransfer:Zone:STORY 1 WEST LEFT PERIMETER SPACE ZN,hourly; !- [J]
Output:Meter,Heating:EnergyTransfer:Zone:STORY 1 WEST LEFT PERIMETER SPACE ZN,hourly; !- [J]
Output:Meter:Cumulative,Heating:EnergyTransfer:Zone:STORY 1 WEST LEFT PERIMETER SPACE ZN,hourly; !- [J]
Output:Meter,Cooling:EnergyTransfer:Zone:STORY 1 WEST LEFT PERIMETER SPACE ZN,hourly; !- [J]
Output:Meter:Cumulative,Cooling:EnergyTransfer:Zone:STORY 1 WEST LEFT PERIMETER SPACE ZN,hourly; !- [J]
Output:Meter,EnergyTransfer:Zone:STORY 1 WEST RIGHT PERIMETER SPACE ZN,hourly; !- [J]
Output:Meter:Cumulative,EnergyTransfer:Zone:STORY 1 WEST RIGHT PERIMETER SPACE ZN,hourly; !- [J]
Output:Meter,Heating:EnergyTransfer:Zone:STORY 1 WEST RIGHT PERIMETER SPACE ZN,hourly; !- [J]
Output:Meter:Cumulative,Heating:EnergyTransfer:Zone:STORY 1 WEST RIGHT PERIMETER SPACE ZN,hourly; !- [J]
Output:Meter,Cooling:EnergyTransfer:Zone:STORY 1 WEST RIGHT PERIMETER SPACE ZN,hourly; !- [J]
Output:Meter:Cumulative,Cooling:EnergyTransfer:Zone:STORY 1 WEST RIGHT PERIMETER SPACE ZN,hourly; !- [J]
Output:Meter,EnergyTransfer:Zone:STORY 2 EAST CORE SPACE ZN,hourly; !- [J]
Output:Meter:Cumulative,EnergyTransfer:Zone:STORY 2 EAST CORE SPACE ZN,hourly; !- [J]
Output:Meter,Heating:EnergyTransfer:Zone:STORY 2 EAST CORE SPACE ZN,hourly; !- [J]
Output:Meter:Cumulative,Heating:EnergyTransfer:Zone:STORY 2 EAST CORE SPACE ZN,hourly; !- [J]
Output:Meter,Cooling:EnergyTransfer:Zone:STORY 2 EAST CORE SPACE ZN,hourly; !- [J]
Output:Meter:Cumulative,Cooling:EnergyTransfer:Zone:STORY 2 EAST CORE SPACE ZN,hourly; !- [J]
Output:Meter,EnergyTransfer:Zone:STORY 2 EAST LEFT PERIMETER SPACE ZN,hourly; !- [J]
Output:Meter:Cumulative,EnergyTransfer:Zone:STORY 2 EAST LEFT PERIMETER SPACE ZN,hourly; !- [J]
Output:Meter,Heating:EnergyTransfer:Zone:STORY 2 EAST LEFT PERIMETER SPACE ZN,hourly; !- [J]
Output:Meter:Cumulative,Heating:EnergyTransfer:Zone:STORY 2 EAST LEFT PERIMETER SPACE ZN,hourly; !- [J]
Output:Meter,Cooling:EnergyTransfer:Zone:STORY 2 EAST LEFT PERIMETER SPACE ZN,hourly; !- [J]
Output:Meter:Cumulative,Cooling:EnergyTransfer:Zone:STORY 2 EAST LEFT PERIMETER SPACE ZN,hourly; !- [J]
Output:Meter,EnergyTransfer:Zone:STORY 2 EAST RIGHT PERIMETER SPACE ZN,hourly; !- [J]
Output:Meter:Cumulative,EnergyTransfer:Zone:STORY 2 EAST RIGHT PERIMETER SPACE ZN,hourly; !- [J]
Output:Meter,Heating:EnergyTransfer:Zone:STORY 2 EAST RIGHT PERIMETER SPACE ZN,hourly; !- [J]
Output:Meter:Cumulative,Heating:EnergyTransfer:Zone:STORY 2 EAST RIGHT PERIMETER SPACE ZN,hourly; !- [J]
Output:Meter,Cooling:EnergyTransfer:Zone:STORY 2 EAST RIGHT PERIMETER SPACE ZN,hourly; !- [J]
Output:Meter:Cumulative,Cooling:EnergyTransfer:Zone:STORY 2 EAST RIGHT PERIMETER SPACE ZN,hourly; !- [J]
Output:Meter,EnergyTransfer:Zone:STORY 2 NORTH LEFT PERIMETER SPACE ZN,hourly; !- [J]
Output:Meter:Cumulative,EnergyTransfer:Zone:STORY 2 NORTH LEFT PERIMETER SPACE ZN,hourly; !- [J]
Output:Meter,Heating:EnergyTransfer:Zone:STORY 2 NORTH LEFT PERIMETER SPACE ZN,hourly; !- [J]
Output:Meter:Cumulative,Heating:EnergyTransfer:Zone:STORY 2 NORTH LEFT PERIMETER SPACE ZN,hourly; !- [J]
Output:Meter,Cooling:EnergyTransfer:Zone:STORY 2 NORTH LEFT PERIMETER SPACE ZN,hourly; !- [J]
Output:Meter:Cumulative,Cooling:EnergyTransfer:Zone:STORY 2 NORTH LEFT PERIMETER SPACE ZN,hourly; !- [J]
Output:Meter,EnergyTransfer:Zone:STORY 2 NORTH LOWER PERIMETER SPACE ZN,hourly; !- [J]
Output:Meter:Cumulative,EnergyTransfer:Zone:STORY 2 NORTH LOWER PERIMETER SPACE ZN,hourly; !- [J]
Output:Meter,Heating:EnergyTransfer:Zone:STORY 2 NORTH LOWER PERIMETER SPACE ZN,hourly; !- [J]
Output:Meter:Cumulative,Heating:EnergyTransfer:Zone:STORY 2 NORTH LOWER PERIMETER SPACE ZN,hourly; !- [J]
Output:Meter,Cooling:EnergyTransfer:Zone:STORY 2 NORTH LOWER PERIMETER SPACE ZN,hourly; !- [J]
Output:Meter:Cumulative,Cooling:EnergyTransfer:Zone:STORY 2 NORTH LOWER PERIMETER SPACE ZN,hourly; !- [J]
Output:Meter,EnergyTransfer:Zone:STORY 2 NORTH RIGHT PERIMETER SPACE ZN,hourly; !- [J]
Output:Meter:Cumulative,EnergyTransfer:Zone:STORY 2 NORTH RIGHT PERIMETER SPACE ZN,hourly; !- [J]
Output:Meter,Heating:EnergyTransfer:Zone:STORY 2 NORTH RIGHT PERIMETER SPACE ZN,hourly; !- [J]
Output:Meter:Cumulative,Heating:EnergyTransfer:Zone:STORY 2 NORTH RIGHT PERIMETER SPACE ZN,hourly; !- [J]
Output:Meter,Cooling:EnergyTransfer:Zone:STORY 2 NORTH RIGHT PERIMETER SPACE ZN,hourly; !- [J]
Output:Meter:Cumulative,Cooling:EnergyTransfer:Zone:STORY 2 NORTH RIGHT PERIMETER SPACE ZN,hourly; !- [J]
Output:Meter,EnergyTransfer:Zone:STORY 2 SOUTH CORE SPACE ZN,hourly; !- [J]
Output:Meter:Cumulative,EnergyTransfer:Zone:STORY 2 SOUTH CORE SPACE ZN,hourly; !- [J]
Output:Meter,Heating:EnergyTransfer:Zone:STORY 2 SOUTH CORE SPACE ZN,hourly; !- [J]
Output:Meter:Cumulative,Heating:EnergyTransfer:Zone:STORY 2 SOUTH CORE SPACE ZN,hourly; !- [J]
Output:Meter,Cooling:EnergyTransfer:Zone:STORY 2 SOUTH CORE SPACE ZN,hourly; !- [J]
Output:Meter:Cumulative,Cooling:EnergyTransfer:Zone:STORY 2 SOUTH CORE SPACE ZN,hourly; !- [J]
Output:Meter,EnergyTransfer:Zone:STORY 2 SOUTH LOWER PERIMETER SPACE ZN,hourly; !- [J]
Output:Meter:Cumulative,EnergyTransfer:Zone:STORY 2 SOUTH LOWER PERIMETER SPACE ZN,hourly; !- [J]
Output:Meter,Heating:EnergyTransfer:Zone:STORY 2 SOUTH LOWER PERIMETER SPACE ZN,hourly; !- [J]
Output:Meter:Cumulative,Heating:EnergyTransfer:Zone:STORY 2 SOUTH LOWER PERIMETER SPACE ZN,hourly; !- [J]
Output:Meter,Cooling:EnergyTransfer:Zone:STORY 2 SOUTH LOWER PERIMETER SPACE ZN,hourly; !- [J]
Output:Meter:Cumulative,Cooling:EnergyTransfer:Zone:STORY 2 SOUTH LOWER PERIMETER SPACE ZN,hourly; !- [J]
Output:Meter,EnergyTransfer:Zone:STORY 2 WEST CORE SPACE ZN,hourly; !- [J]
Output:Meter:Cumulative,EnergyTransfer:Zone:STORY 2 WEST CORE SPACE ZN,hourly; !- [J]
Output:Meter,Heating:EnergyTransfer:Zone:STORY 2 WEST CORE SPACE ZN,hourly; !- [J]
Output:Meter:Cumulative,Heating:EnergyTransfer:Zone:STORY 2 WEST CORE SPACE ZN,hourly; !- [J]
Output:Meter,Cooling:EnergyTransfer:Zone:STORY 2 WEST CORE SPACE ZN,hourly; !- [J]
Output:Meter:Cumulative,Cooling:EnergyTransfer:Zone:STORY 2 WEST CORE SPACE ZN,hourly; !- [J]
Output:Meter,EnergyTransfer:Zone:STORY 2 WEST LEFT PERIMETER SPACE ZN,hourly; !- [J]
Output:Meter:Cumulative,EnergyTransfer:Zone:STORY 2 WEST LEFT PERIMETER SPACE ZN,hourly; !- [J]
Output:Meter,Heating:EnergyTransfer:Zone:STORY 2 WEST LEFT PERIMETER SPACE ZN,hourly; !- [J]
Output:Meter:Cumulative,Heating:EnergyTransfer:Zone:STORY 2 WEST LEFT PERIMETER SPACE ZN,hourly; !- [J]
Output:Meter,Cooling:EnergyTransfer:Zone:STORY 2 WEST LEFT PERIMETER SPACE ZN,hourly; !- [J]
Output:Meter:Cumulative,Cooling:EnergyTransfer:Zone:STORY 2 WEST LEFT PERIMETER SPACE ZN,hourly; !- [J]
Output:Meter,EnergyTransfer:Zone:STORY 2 WEST RIGHT PERIMETER SPACE ZN,hourly; !- [J]
Output:Meter:Cumulative,EnergyTransfer:Zone:STORY 2 WEST RIGHT PERIMETER SPACE ZN,hourly; !- [J]
Output:Meter,Heating:EnergyTransfer:Zone:STORY 2 WEST RIGHT PERIMETER SPACE ZN,hourly; !- [J]
Output:Meter:Cumulative,Heating:EnergyTransfer:Zone:STORY 2 WEST RIGHT PERIMETER SPACE ZN,hourly; !- [J]
Output:Meter,Cooling:EnergyTransfer:Zone:STORY 2 WEST RIGHT PERIMETER SPACE ZN,hourly; !- [J]
Output:Meter:Cumulative,Cooling:EnergyTransfer:Zone:STORY 2 WEST RIGHT PERIMETER SPACE ZN,hourly; !- [J]
Output:Meter,ElectricityPurchased:Facility,hourly; !- [J]
Output:Meter:Cumulative,ElectricityPurchased:Facility,hourly; !- [J]
Output:Meter,ElectricityPurchased:Plant,hourly; !- [J]
Output:Meter:Cumulative,ElectricityPurchased:Plant,hourly; !- [J]
Output:Meter,Cogeneration:ElectricityPurchased,hourly; !- [J]
Output:Meter:Cumulative,Cogeneration:ElectricityPurchased,hourly; !- [J]
Output:Meter,ElectricitySurplusSold:Facility,hourly; !- [J]
Output:Meter:Cumulative,ElectricitySurplusSold:Facility,hourly; !- [J]
Output:Meter,ElectricitySurplusSold:Plant,hourly; !- [J]
Output:Meter:Cumulative,ElectricitySurplusSold:Plant,hourly; !- [J]
Output:Meter,Cogeneration:ElectricitySurplusSold,hourly; !- [J]
Output:Meter:Cumulative,Cogeneration:ElectricitySurplusSold,hourly; !- [J]
Output:Meter,ElectricityNet:Facility,hourly; !- [J]
Output:Meter:Cumulative,ElectricityNet:Facility,hourly; !- [J]
Output:Meter,ElectricityNet:Plant,hourly; !- [J]
Output:Meter:Cumulative,ElectricityNet:Plant,hourly; !- [J]
Output:Meter,Cogeneration:ElectricityNet,hourly; !- [J]
Output:Meter:Cumulative,Cogeneration:ElectricityNet,hourly; !- [J]
Output:Meter,DistrictHeating:Facility,hourly; !- [J]
Output:Meter:Cumulative,DistrictHeating:Facility,hourly; !- [J]
Output:Meter,DistrictHeating:HVAC,hourly; !- [J]
Output:Meter:Cumulative,DistrictHeating:HVAC,hourly; !- [J]
Output:Meter,Heating:DistrictHeating,hourly; !- [J]
Output:Meter:Cumulative,Heating:DistrictHeating,hourly; !- [J]
Output:Meter,DistrictCooling:Facility,hourly; !- [J]
Output:Meter:Cumulative,DistrictCooling:Facility,hourly; !- [J]
Output:Meter,DistrictCooling:HVAC,hourly; !- [J]
Output:Meter:Cumulative,DistrictCooling:HVAC,hourly; !- [J]
Output:Meter,Cooling:DistrictCooling,hourly; !- [J]
Output:Meter:Cumulative,Cooling:DistrictCooling,hourly; !- [J]
Output:Meter,Carbon Equivalent:Facility,hourly; !- [kg]
Output:Meter:Cumulative,Carbon Equivalent:Facility,hourly; !- [kg]
Output:Meter,CarbonEquivalentEmissions:Carbon Equivalent,hourly; !- [kg]
Output:Meter:Cumulative,CarbonEquivalentEmissions:Carbon Equivalent,hourly; !- [kg]
