Program Version,EnergyPlus, Version 8.9.0-eba93e8e1b, YMD=2019.05.01 16:02
! <Version>, Version ID
 Version, 8.9
! <Timesteps per Hour>, #TimeSteps, Minutes per TimeStep {minutes}
 Timesteps per Hour,  6, 10
! <System Convergence Limits>, Minimum System TimeStep {minutes}, Max HVAC Iterations, Minimum Plant Iterations, Maximum Plant Iterations
 System Convergence Limits, 1, 20, 2, 8
! <Simulation Control>, Do Zone Sizing, Do System Sizing, Do Plant Sizing, Do Design Days, Do Weather Simulation, Do HVAC Sizing Simulation
 Simulation Control, Yes, No, No, Yes, No, No
! <Output Reporting Tolerances>, Tolerance for Time Heating Setpoint Not Met, Tolerance for Zone Cooling Setpoint Not Met Time
 Output Reporting Tolerances, 0.200, 0.200, 
! <Site:GroundTemperature:BuildingSurface>,Jan{C},Feb{C},Mar{C},Apr{C},May{C},Jun{C},Jul{C},Aug{C},Sep{C},Oct{C},Nov{C},Dec{C}
 Site:GroundTemperature:BuildingSurface,  18.00,  18.00,  18.00,  18.00,  18.00,  18.00,  18.00,  18.00,  18.00,  18.00,  18.00,  18.00
! <Site:GroundTemperature:FCfactorMethod>,Jan{C},Feb{C},Mar{C},Apr{C},May{C},Jun{C},Jul{C},Aug{C},Sep{C},Oct{C},Nov{C},Dec{C}
 Site:GroundTemperature:FCfactorMethod,  -5.97,  -7.23,  -4.99,  -1.50,   7.64,  14.69,  19.45,  20.90,  18.43,  12.96,   5.64,  -1.15
! <Site:GroundTemperature:Shallow>,Jan{C},Feb{C},Mar{C},Apr{C},May{C},Jun{C},Jul{C},Aug{C},Sep{C},Oct{C},Nov{C},Dec{C}
 Site:GroundTemperature:Shallow,  13.00,  13.00,  13.00,  13.00,  13.00,  13.00,  13.00,  13.00,  13.00,  13.00,  13.00,  13.00
! <Site:GroundTemperature:Deep>,Jan{C},Feb{C},Mar{C},Apr{C},May{C},Jun{C},Jul{C},Aug{C},Sep{C},Oct{C},Nov{C},Dec{C}
 Site:GroundTemperature:Deep,  16.00,  16.00,  16.00,  16.00,  16.00,  16.00,  16.00,  16.00,  16.00,  16.00,  16.00,  16.00
! <Site:GroundReflectance>,Jan{dimensionless},Feb{dimensionless},Mar{dimensionless},Apr{dimensionless},May{dimensionless},Jun{dimensionless},Jul{dimensionless},Aug{dimensionless},Sep{dimensionless},Oct{dimensionless},Nov{dimensionless},Dec{dimensionless}
 Site:GroundReflectance,  0.20,  0.20,  0.20,  0.20,  0.20,  0.20,  0.20,  0.20,  0.20,  0.20,  0.20,  0.20
! <Site:GroundReflectance:SnowModifier>, Normal, Daylighting {dimensionless}
 Site:GroundReflectance:SnowModifier,   1.000,   1.000
! <Site:GroundReflectance:Snow>,Jan{dimensionless},Feb{dimensionless},Mar{dimensionless},Apr{dimensionless},May{dimensionless},Jun{dimensionless},Jul{dimensionless},Aug{dimensionless},Sep{dimensionless},Oct{dimensionless},Nov{dimensionless},Dec{dimensionless}
 Site:GroundReflectance:Snow,  0.20,  0.20,  0.20,  0.20,  0.20,  0.20,  0.20,  0.20,  0.20,  0.20,  0.20,  0.20
! <Site:GroundReflectance:Snow:Daylighting>,Jan{dimensionless},Feb{dimensionless},Mar{dimensionless},Apr{dimensionless},May{dimensionless},Jun{dimensionless},Jul{dimensionless},Aug{dimensionless},Sep{dimensionless},Oct{dimensionless},Nov{dimensionless},Dec{dimensionless}
 Site:GroundReflectance:Snow:Daylighting,  0.20,  0.20,  0.20,  0.20,  0.20,  0.20,  0.20,  0.20,  0.20,  0.20,  0.20,  0.20
! <Environment:Weather Station>,Wind Sensor Height Above Ground {m},Wind Speed Profile Exponent {},Wind Speed Profile Boundary Layer Thickness {m},Air Temperature Sensor Height Above Ground {m},Wind Speed Modifier Coefficient-Internal,Temperature Modifier Coefficient-Internal
Environment:Weather Station,10.000,0.140,270.000,1.500,1.586,9.750E-003
! <Site:Location>, Location Name, Latitude {N+/S- Deg}, Longitude {E+/W- Deg},  Time Zone Number {GMT+/-}, Elevation {m},  Standard Pressure at Elevation {Pa}, Standard RhoAir at Elevation
Site:Location,Ottawa=Macdonald-Cartier Intl AP ON CAN CWEC2016 WMO#=716280,45.32,-75.67,-5.00,114.90,99952,1.1880
! <Building Information>, Building Name,North Axis {deg},Terrain,  Loads Convergence Tolerance Value,Temperature Convergence Tolerance Value,  Solar Distribution,Maximum Number of Warmup Days,Minimum Number of Warmup Days
 Building Information,rectangular,0.000,Suburbs,4.00000E-002,0.40000,FullExterior,25,6
! <Inside Convection Algorithm>, Algorithm {Simple | TARP | CeilingDiffuser | AdaptiveConvectionAlgorithm}
Inside Convection Algorithm,TARP
! <Outside Convection Algorithm>, Algorithm {SimpleCombined | TARP | MoWitt | DOE-2 | AdaptiveConvectionAlgorithm}
Outside Convection Algorithm,TARP
! <Sky Radiance Distribution>, Value {Anisotropic}
Sky Radiance Distribution,Anisotropic
! <Zone Air Solution Algorithm>, Value {ThirdOrderBackwardDifference | AnalyticalSolution | EulerMethod}
 Zone Air Solution Algorithm, ThirdOrderBackwardDifference
! <Zone Air Carbon Dioxide Balance Simulation>, Simulation {Yes/No}, Carbon Dioxide Concentration
 Zone Air Carbon Dioxide Balance Simulation, No,N/A
! <Zone Air Generic Contaminant Balance Simulation>, Simulation {Yes/No}, Generic Contaminant Concentration
 Zone Air Generic Contaminant Balance Simulation, No,N/A
! <Zone Air Mass Flow Balance Simulation>, Enforce Mass Balance, Adjust Zone Mixing, Adjust Zone Infiltration {AddInfiltration | AdjustInfiltration | None}, Infiltration Zones {MixingSourceZonesOnly | AllZones}
 Zone Air Mass Flow Balance Simulation, No,N/A,N/A,N/A
! <HVACSystemRootFindingAlgorithm>, Value {RegulaFalsi | Bisection | BisectionThenRegulaFalsi | RegulaFalsiThenBisection}
 HVACSystemRootFindingAlgorithm, RegulaFalsi
! <Environment:Site Atmospheric Variation>,Wind Speed Profile Exponent {},Wind Speed Profile Boundary Layer Thickness {m},Air Temperature Gradient Coefficient {K/m}
Environment:Site Atmospheric Variation,0.220,370.000,6.500000E-003
! <Surface Geometry>,Starting Corner,Vertex Input Direction,Coordinate System,Daylight Reference Point Coordinate System,Rectangular (Simple) Surface Coordinate System
 Surface Geometry,UpperLeftCorner,Counterclockwise,RelativeCoordinateSystem,RelativeCoordinateSystem,RelativeToZoneOrigin
! <Surface Heat Transfer Algorithm>, Value {CTF - ConductionTransferFunction | EMPD - MoisturePenetrationDepthConductionTransferFunction | CondFD - ConductionFiniteDifference | HAMT - CombinedHeatAndMoistureFiniteElement} - Description,Inside Surface Max Temperature Limit{C}, Surface Convection Coefficient Lower Limit {W/m2-K}, Surface Convection Coefficient Upper Limit {W/m2-K}
Surface Heat Transfer Algorithm, CTF - ConductionTransferFunction,200,0.10,1000.0
! <Shading Summary>, Number of Fixed Detached Shades, Number of Building Detached Shades, Number of Attached Shades
 Shading Summary,0,0,0
! <Zone Summary>, Number of Zones, Number of Zone Surfaces, Number of SubSurfaces
 Zone Summary,22,159,27
! <Zone Information>,Zone Name,North Axis {deg},Origin X-Coordinate {m},Origin Y-Coordinate {m},Origin Z-Coordinate {m},Centroid X-Coordinate {m},Centroid Y-Coordinate {m},Centroid Z-Coordinate {m},Type,Zone Multiplier,Zone List Multiplier,Minimum X {m},Maximum X {m},Minimum Y {m},Maximum Y {m},Minimum Z {m},Maximum Z {m},Ceiling Height {m},Volume {m3},Zone Inside Convection Algorithm {Simple-Detailed-CeilingDiffuser-TrombeWall},Zone Outside Convection Algorithm {Simple-Detailed-Tarp-MoWitt-DOE-2-BLAST}, Floor Area {m2},Exterior Gross Wall Area {m2},Exterior Net Wall Area {m2},Exterior Window Area {m2}, Number of Surfaces, Number of SubSurfaces, Number of Shading SubSurfaces,  Part of Total Building Area
 Zone Information, STORY 1 EAST CORE SPACE ZN,0.0,77.12,36.27,0.00,95.71,64.48,1.60,1,1,1,77.12,111.87,1.52,111.87,0.00,3.20,3.20,10337.95,TARP,TARP,3230.61,0.00,0.00,0.00,6,0,0,Yes
 Zone Information, STORY 1 EAST LEFT PERIMETER SPACE ZN,0.0,36.27,36.27,0.00,37.03,74.83,1.60,1,1,1,36.27,37.80,36.27,113.39,0.00,3.20,3.20,368.49,TARP,TARP,115.15,241.90,153.12,88.78,6,1,0,Yes
 Zone Information, STORY 1 EAST RIGHT PERIMETER SPACE ZN,0.0,111.87,1.52,0.00,112.64,56.69,1.60,1,1,1,111.87,113.39,0.00,113.39,0.00,3.20,3.20,545.31,TARP,TARP,170.41,362.85,229.68,133.16,6,1,0,Yes
 Zone Information, STORY 1 NORTH LEFT PERIMETER SPACE ZN,0.0,1.52,111.87,0.00,18.90,112.65,1.60,1,1,1,0.00,37.80,111.87,113.39,0.00,3.20,3.20,176.82,TARP,TARP,55.26,120.95,76.56,44.39,6,1,0,Yes
 Zone Information, STORY 1 NORTH LOWER PERIMETER SPACE ZN,0.0,36.27,36.27,0.00,56.69,37.01,1.60,1,1,1,36.27,77.12,36.27,37.80,0.00,3.20,3.20,191.67,TARP,TARP,59.90,120.95,76.56,44.39,6,1,0,Yes
 Zone Information, STORY 1 NORTH RIGHT PERIMETER SPACE ZN,0.0,77.12,111.87,0.00,94.49,112.65,1.60,1,1,1,75.59,113.39,111.87,113.39,0.00,3.20,3.20,176.82,TARP,TARP,55.26,120.95,76.56,44.39,6,1,0,Yes
 Zone Information, STORY 1 SOUTH CORE SPACE ZN,0.0,1.52,1.52,0.00,56.69,15.95,1.60,1,1,1,1.52,111.87,1.52,36.27,0.00,3.20,3.20,8405.88,TARP,TARP,2626.84,0.00,0.00,0.00,6,0,0,Yes
 Zone Information, STORY 1 SOUTH LOWER PERIMETER SPACE ZN,0.0,0.00,0.00,0.00,56.69,0.75,1.60,1,1,1,0.00,113.39,0.00,1.52,0.00,3.20,3.20,545.31,TARP,TARP,170.41,362.85,229.68,133.16,6,1,0,Yes
 Zone Information, STORY 1 WEST CORE SPACE ZN,0.0,1.52,1.52,0.00,17.68,64.48,1.60,1,1,1,1.52,36.27,1.52,111.87,0.00,3.20,3.20,10337.95,TARP,TARP,3230.61,0.00,0.00,0.00,6,0,0,Yes
 Zone Information, STORY 1 WEST LEFT PERIMETER SPACE ZN,0.0,0.00,0.00,0.00,0.75,56.69,1.60,1,1,1,0.00,1.52,0.00,113.39,0.00,3.20,3.20,545.31,TARP,TARP,170.41,362.85,229.68,133.16,6,1,0,Yes
 Zone Information, STORY 1 WEST RIGHT PERIMETER SPACE ZN,0.0,75.59,37.80,0.00,76.35,74.83,1.60,1,1,1,75.59,77.12,36.27,113.39,0.00,3.20,3.20,368.49,TARP,TARP,115.15,241.90,153.12,88.78,6,1,0,Yes
 Zone Information, STORY 2 EAST CORE SPACE ZN,0.0,77.12,36.27,3.20,95.71,64.48,4.80,1,1,1,77.12,111.87,1.52,111.87,3.20,6.40,3.20,10337.95,TARP,TARP,3230.61,0.00,0.00,64.61,6,1,0,Yes
 Zone Information, STORY 2 EAST LEFT PERIMETER SPACE ZN,0.0,36.27,36.27,3.20,37.03,74.83,4.80,1,1,1,36.27,37.80,36.27,113.39,3.20,6.40,3.20,368.49,TARP,TARP,115.15,241.90,153.12,91.08,6,2,0,Yes
 Zone Information, STORY 2 EAST RIGHT PERIMETER SPACE ZN,0.0,111.87,1.52,3.20,112.64,56.69,4.80,1,1,1,111.87,113.39,0.00,113.39,3.20,6.40,3.20,545.31,TARP,TARP,170.41,362.85,229.68,136.57,6,2,0,Yes
 Zone Information, STORY 2 NORTH LEFT PERIMETER SPACE ZN,0.0,1.52,111.87,3.20,18.90,112.65,4.80,1,1,1,0.00,37.80,111.87,113.39,3.20,6.40,3.20,176.82,TARP,TARP,55.26,120.95,76.56,45.49,6,2,0,Yes
 Zone Information, STORY 2 NORTH LOWER PERIMETER SPACE ZN,0.0,36.27,36.27,3.20,56.69,37.01,4.80,1,1,1,36.27,77.12,36.27,37.80,3.20,6.40,3.20,191.67,TARP,TARP,59.90,120.95,76.56,45.59,6,2,0,Yes
 Zone Information, STORY 2 NORTH RIGHT PERIMETER SPACE ZN,0.0,77.12,111.87,3.20,94.49,112.65,4.80,1,1,1,75.59,113.39,111.87,113.39,3.20,6.40,3.20,176.82,TARP,TARP,55.26,120.95,76.56,45.49,6,2,0,Yes
 Zone Information, STORY 2 SOUTH CORE SPACE ZN,0.0,1.52,1.52,3.20,56.69,15.95,4.80,1,1,1,1.52,111.87,1.52,36.27,3.20,6.40,3.20,8405.88,TARP,TARP,2626.84,0.00,0.00,52.54,6,1,0,Yes
 Zone Information, STORY 2 SOUTH LOWER PERIMETER SPACE ZN,0.0,0.00,0.00,3.20,56.69,0.75,4.80,1,1,1,0.00,113.39,0.00,1.52,3.20,6.40,3.20,545.31,TARP,TARP,170.41,362.85,229.68,136.57,6,2,0,Yes
 Zone Information, STORY 2 WEST CORE SPACE ZN,0.0,1.52,1.52,3.20,17.68,64.48,4.80,1,1,1,1.52,36.27,1.52,111.87,3.20,6.40,3.20,10337.95,TARP,TARP,3230.61,0.00,0.00,64.61,6,1,0,Yes
 Zone Information, STORY 2 WEST LEFT PERIMETER SPACE ZN,0.0,0.00,0.00,3.20,0.75,56.69,4.80,1,1,1,0.00,1.52,0.00,113.39,3.20,6.40,3.20,545.31,TARP,TARP,170.41,362.85,229.68,136.57,6,2,0,Yes
 Zone Information, STORY 2 WEST RIGHT PERIMETER SPACE ZN,0.0,75.59,37.80,3.20,76.35,74.83,4.80,1,1,1,75.59,77.12,36.27,113.39,3.20,6.40,3.20,368.49,TARP,TARP,115.15,241.90,153.12,91.08,6,2,0,Yes
! <Zone Internal Gains Nominal>,Zone Name, Floor Area {m2},# Occupants,Area per Occupant {m2/person},Occupant per Area {person/m2},Interior Lighting {W/m2},Electric Load {W/m2},Gas Load {W/m2},Other Load {W/m2},Hot Water Eq {W/m2},Steam Equipment {W/m2},Sum Loads per Area {W/m2},Outdoor Controlled Baseboard Heat
 Zone Internal Gains Nominal, STORY 1 EAST CORE SPACE ZN,3230.61,129.3,24.991,4.001E-002,8.500,7.503,0.000,0.000,0.000,0.000,16.003,No
 Zone Internal Gains Nominal, STORY 1 EAST LEFT PERIMETER SPACE ZN,115.15,4.6,24.991,4.001E-002,8.500,7.503,0.000,0.000,0.000,0.000,16.003,No
 Zone Internal Gains Nominal, STORY 1 EAST RIGHT PERIMETER SPACE ZN,170.41,6.8,24.991,4.001E-002,8.500,7.503,0.000,0.000,0.000,0.000,16.003,No
 Zone Internal Gains Nominal, STORY 1 NORTH LEFT PERIMETER SPACE ZN,55.26,2.2,24.991,4.001E-002,8.500,7.503,0.000,0.000,0.000,0.000,16.003,No
 Zone Internal Gains Nominal, STORY 1 NORTH LOWER PERIMETER SPACE ZN,59.90,2.4,24.991,4.001E-002,8.500,7.503,0.000,0.000,0.000,0.000,16.003,No
 Zone Internal Gains Nominal, STORY 1 NORTH RIGHT PERIMETER SPACE ZN,55.26,2.2,24.991,4.001E-002,8.500,7.503,0.000,0.000,0.000,0.000,16.003,No
 Zone Internal Gains Nominal, STORY 1 SOUTH CORE SPACE ZN,2626.84,105.1,24.991,4.001E-002,8.500,7.503,0.000,0.000,0.000,0.000,16.003,No
 Zone Internal Gains Nominal, STORY 1 SOUTH LOWER PERIMETER SPACE ZN,170.41,6.8,24.991,4.001E-002,8.500,7.503,0.000,0.000,0.000,0.000,16.003,No
 Zone Internal Gains Nominal, STORY 1 WEST CORE SPACE ZN,3230.61,129.3,24.991,4.001E-002,8.500,7.503,0.000,0.000,0.000,0.000,16.003,No
 Zone Internal Gains Nominal, STORY 1 WEST LEFT PERIMETER SPACE ZN,170.41,6.8,24.991,4.001E-002,8.500,7.503,0.000,0.000,0.000,0.000,16.003,No
 Zone Internal Gains Nominal, STORY 1 WEST RIGHT PERIMETER SPACE ZN,115.15,4.6,24.991,4.001E-002,8.500,7.503,0.000,0.000,0.000,0.000,16.003,No
 Zone Internal Gains Nominal, STORY 2 EAST CORE SPACE ZN,3230.61,129.3,24.991,4.001E-002,8.500,7.503,0.000,0.000,0.000,0.000,16.003,No
 Zone Internal Gains Nominal, STORY 2 EAST LEFT PERIMETER SPACE ZN,115.15,4.6,24.991,4.001E-002,8.500,7.503,0.000,0.000,0.000,0.000,16.003,No
 Zone Internal Gains Nominal, STORY 2 EAST RIGHT PERIMETER SPACE ZN,170.41,6.8,24.991,4.001E-002,8.500,7.503,0.000,0.000,0.000,0.000,16.003,No
 Zone Internal Gains Nominal, STORY 2 NORTH LEFT PERIMETER SPACE ZN,55.26,2.2,24.991,4.001E-002,8.500,7.503,0.000,0.000,0.000,0.000,16.003,No
 Zone Internal Gains Nominal, STORY 2 NORTH LOWER PERIMETER SPACE ZN,59.90,2.4,24.991,4.001E-002,8.500,7.503,0.000,0.000,0.000,0.000,16.003,No
 Zone Internal Gains Nominal, STORY 2 NORTH RIGHT PERIMETER SPACE ZN,55.26,2.2,24.991,4.001E-002,8.500,7.503,0.000,0.000,0.000,0.000,16.003,No
 Zone Internal Gains Nominal, STORY 2 SOUTH CORE SPACE ZN,2626.84,105.1,24.991,4.001E-002,8.500,7.503,0.000,0.000,0.000,0.000,16.003,No
 Zone Internal Gains Nominal, STORY 2 SOUTH LOWER PERIMETER SPACE ZN,170.41,6.8,24.991,4.001E-002,8.500,7.503,0.000,0.000,0.000,0.000,16.003,No
 Zone Internal Gains Nominal, STORY 2 WEST CORE SPACE ZN,3230.61,129.3,24.991,4.001E-002,8.500,7.503,0.000,0.000,0.000,0.000,16.003,No
 Zone Internal Gains Nominal, STORY 2 WEST LEFT PERIMETER SPACE ZN,170.41,6.8,24.991,4.001E-002,8.500,7.503,0.000,0.000,0.000,0.000,16.003,No
 Zone Internal Gains Nominal, STORY 2 WEST RIGHT PERIMETER SPACE ZN,115.15,4.6,24.991,4.001E-002,8.500,7.503,0.000,0.000,0.000,0.000,16.003,No
! <People Internal Gains Nominal>,Name,Schedule Name,Zone Name,Zone Floor Area {m2},# Zone Occupants,Number of People {},People/Floor Area {person/m2},Floor Area per person {m2/person},Fraction Radiant,Fraction Convected,Sensible Fraction Calculation,Activity level,ASHRAE 55 Warnings,Carbon Dioxide Generation Rate,Nominal Minimum Number of People,Nominal Maximum Number of People
 People Internal Gains Nominal, STORY 1 EAST CORE SPACE ZN OFFICE WHOLEBUILDING PEOPLE,NECB-A-OCCUPANCY,STORY 1 EAST CORE SPACE ZN,3230.61,129.3,129.3,4.001E-002,24.991,0.300,0.700,AutoCalculate,NECB-ACTIVITY,No,3.8200E-008,0,116
 People Internal Gains Nominal, STORY 1 EAST LEFT PERIMETER SPACE ZN OFFICE WHOLEBUILDING PEOPLE,NECB-A-OCCUPANCY,STORY 1 EAST LEFT PERIMETER SPACE ZN,115.15,4.6,4.6,4.001E-002,24.991,0.300,0.700,AutoCalculate,NECB-ACTIVITY,No,3.8200E-008,0,4
 People Internal Gains Nominal, STORY 1 EAST RIGHT PERIMETER SPACE ZN OFFICE WHOLEBUILDING PEOPLE,NECB-A-OCCUPANCY,STORY 1 EAST RIGHT PERIMETER SPACE ZN,170.41,6.8,6.8,4.001E-002,24.991,0.300,0.700,AutoCalculate,NECB-ACTIVITY,No,3.8200E-008,0,6
 People Internal Gains Nominal, STORY 1 NORTH LEFT PERIMETER SPACE ZN OFFICE WHOLEBUILDING PEOPLE,NECB-A-OCCUPANCY,STORY 1 NORTH LEFT PERIMETER SPACE ZN,55.26,2.2,2.2,4.001E-002,24.991,0.300,0.700,AutoCalculate,NECB-ACTIVITY,No,3.8200E-008,0,2
 People Internal Gains Nominal, STORY 1 NORTH LOWER PERIMETER SPACE ZN OFFICE WHOLEBUILDING PEOPLE,NECB-A-OCCUPANCY,STORY 1 NORTH LOWER PERIMETER SPACE ZN,59.90,2.4,2.4,4.001E-002,24.991,0.300,0.700,AutoCalculate,NECB-ACTIVITY,No,3.8200E-008,0,2
 People Internal Gains Nominal, STORY 1 NORTH RIGHT PERIMETER SPACE ZN OFFICE WHOLEBUILDING PEOPLE,NECB-A-OCCUPANCY,STORY 1 NORTH RIGHT PERIMETER SPACE ZN,55.26,2.2,2.2,4.001E-002,24.991,0.300,0.700,AutoCalculate,NECB-ACTIVITY,No,3.8200E-008,0,2
 People Internal Gains Nominal, STORY 1 SOUTH CORE SPACE ZN OFFICE WHOLEBUILDING PEOPLE,NECB-A-OCCUPANCY,STORY 1 SOUTH CORE SPACE ZN,2626.84,105.1,105.1,4.001E-002,24.991,0.300,0.700,AutoCalculate,NECB-ACTIVITY,No,3.8200E-008,0,95
 People Internal Gains Nominal, STORY 1 SOUTH LOWER PERIMETER SPACE ZN OFFICE WHOLEBUILDING PEOPLE,NECB-A-OCCUPANCY,STORY 1 SOUTH LOWER PERIMETER SPACE ZN,170.41,6.8,6.8,4.001E-002,24.991,0.300,0.700,AutoCalculate,NECB-ACTIVITY,No,3.8200E-008,0,6
 People Internal Gains Nominal, STORY 1 WEST CORE SPACE ZN OFFICE WHOLEBUILDING PEOPLE,NECB-A-OCCUPANCY,STORY 1 WEST CORE SPACE ZN,3230.61,129.3,129.3,4.001E-002,24.991,0.300,0.700,AutoCalculate,NECB-ACTIVITY,No,3.8200E-008,0,116
 People Internal Gains Nominal, STORY 1 WEST LEFT PERIMETER SPACE ZN OFFICE WHOLEBUILDING PEOPLE,NECB-A-OCCUPANCY,STORY 1 WEST LEFT PERIMETER SPACE ZN,170.41,6.8,6.8,4.001E-002,24.991,0.300,0.700,AutoCalculate,NECB-ACTIVITY,No,3.8200E-008,0,6
 People Internal Gains Nominal, STORY 1 WEST RIGHT PERIMETER SPACE ZN OFFICE WHOLEBUILDING PEOPLE,NECB-A-OCCUPANCY,STORY 1 WEST RIGHT PERIMETER SPACE ZN,115.15,4.6,4.6,4.001E-002,24.991,0.300,0.700,AutoCalculate,NECB-ACTIVITY,No,3.8200E-008,0,4
 People Internal Gains Nominal, STORY 2 EAST CORE SPACE ZN OFFICE WHOLEBUILDING PEOPLE,NECB-A-OCCUPANCY,STORY 2 EAST CORE SPACE ZN,3230.61,129.3,129.3,4.001E-002,24.991,0.300,0.700,AutoCalculate,NECB-ACTIVITY,No,3.8200E-008,0,116
 People Internal Gains Nominal, STORY 2 EAST LEFT PERIMETER SPACE ZN OFFICE WHOLEBUILDING PEOPLE,NECB-A-OCCUPANCY,STORY 2 EAST LEFT PERIMETER SPACE ZN,115.15,4.6,4.6,4.001E-002,24.991,0.300,0.700,AutoCalculate,NECB-ACTIVITY,No,3.8200E-008,0,4
 People Internal Gains Nominal, STORY 2 EAST RIGHT PERIMETER SPACE ZN OFFICE WHOLEBUILDING PEOPLE,NECB-A-OCCUPANCY,STORY 2 EAST RIGHT PERIMETER SPACE ZN,170.41,6.8,6.8,4.001E-002,24.991,0.300,0.700,AutoCalculate,NECB-ACTIVITY,No,3.8200E-008,0,6
 People Internal Gains Nominal, STORY 2 NORTH LEFT PERIMETER SPACE ZN OFFICE WHOLEBUILDING PEOPLE,NECB-A-OCCUPANCY,STORY 2 NORTH LEFT PERIMETER SPACE ZN,55.26,2.2,2.2,4.001E-002,24.991,0.300,0.700,AutoCalculate,NECB-ACTIVITY,No,3.8200E-008,0,2
 People Internal Gains Nominal, STORY 2 NORTH LOWER PERIMETER SPACE ZN OFFICE WHOLEBUILDING PEOPLE,NECB-A-OCCUPANCY,STORY 2 NORTH LOWER PERIMETER SPACE ZN,59.90,2.4,2.4,4.001E-002,24.991,0.300,0.700,AutoCalculate,NECB-ACTIVITY,No,3.8200E-008,0,2
 People Internal Gains Nominal, STORY 2 NORTH RIGHT PERIMETER SPACE ZN OFFICE WHOLEBUILDING PEOPLE,NECB-A-OCCUPANCY,STORY 2 NORTH RIGHT PERIMETER SPACE ZN,55.26,2.2,2.2,4.001E-002,24.991,0.300,0.700,AutoCalculate,NECB-ACTIVITY,No,3.8200E-008,0,2
 People Internal Gains Nominal, STORY 2 SOUTH CORE SPACE ZN OFFICE WHOLEBUILDING PEOPLE,NECB-A-OCCUPANCY,STORY 2 SOUTH CORE SPACE ZN,2626.84,105.1,105.1,4.001E-002,24.991,0.300,0.700,AutoCalculate,NECB-ACTIVITY,No,3.8200E-008,0,95
 People Internal Gains Nominal, STORY 2 SOUTH LOWER PERIMETER SPACE ZN OFFICE WHOLEBUILDING PEOPLE,NECB-A-OCCUPANCY,STORY 2 SOUTH LOWER PERIMETER SPACE ZN,170.41,6.8,6.8,4.001E-002,24.991,0.300,0.700,AutoCalculate,NECB-ACTIVITY,No,3.8200E-008,0,6
 People Internal Gains Nominal, STORY 2 WEST CORE SPACE ZN OFFICE WHOLEBUILDING PEOPLE,NECB-A-OCCUPANCY,STORY 2 WEST CORE SPACE ZN,3230.61,129.3,129.3,4.001E-002,24.991,0.300,0.700,AutoCalculate,NECB-ACTIVITY,No,3.8200E-008,0,116
 People Internal Gains Nominal, STORY 2 WEST LEFT PERIMETER SPACE ZN OFFICE WHOLEBUILDING PEOPLE,NECB-A-OCCUPANCY,STORY 2 WEST LEFT PERIMETER SPACE ZN,170.41,6.8,6.8,4.001E-002,24.991,0.300,0.700,AutoCalculate,NECB-ACTIVITY,No,3.8200E-008,0,6
 People Internal Gains Nominal, STORY 2 WEST RIGHT PERIMETER SPACE ZN OFFICE WHOLEBUILDING PEOPLE,NECB-A-OCCUPANCY,STORY 2 WEST RIGHT PERIMETER SPACE ZN,115.15,4.6,4.6,4.001E-002,24.991,0.300,0.700,AutoCalculate,NECB-ACTIVITY,No,3.8200E-008,0,4
! <Lights Internal Gains Nominal>,Name,Schedule Name,Zone Name,Zone Floor Area {m2},# Zone Occupants,Lighting Level {W},Lights/Floor Area {W/m2},Lights per person {W/person},Fraction Return Air,Fraction Radiant,Fraction Short Wave,Fraction Convected,Fraction Replaceable,End-Use Category,Nominal Minimum Lighting Level {W},Nominal Maximum Lighting Level {W}
 Lights Internal Gains Nominal, STORY 1 EAST CORE SPACE ZN OFFICE WHOLEBUILDING LIGHTS,NECB-A-LIGHTING,STORY 1 EAST CORE SPACE ZN,3230.61,129.3,27459.948,8.500,212.421,0.000,0.500,0.200,0.300,1.000,General,1372.997,24713.953
 Lights Internal Gains Nominal, STORY 1 EAST LEFT PERIMETER SPACE ZN OFFICE WHOLEBUILDING LIGHTS,NECB-A-LIGHTING,STORY 1 EAST LEFT PERIMETER SPACE ZN,115.15,4.6,978.794,8.500,212.421,0.000,0.500,0.200,0.300,1.000,General,48.940,880.914
 Lights Internal Gains Nominal, STORY 1 EAST RIGHT PERIMETER SPACE ZN OFFICE WHOLEBUILDING LIGHTS,NECB-A-LIGHTING,STORY 1 EAST RIGHT PERIMETER SPACE ZN,170.41,6.8,1448.466,8.500,212.421,0.000,0.500,0.200,0.300,1.000,General,72.423,1303.619
 Lights Internal Gains Nominal, STORY 1 NORTH LEFT PERIMETER SPACE ZN OFFICE WHOLEBUILDING LIGHTS,NECB-A-LIGHTING,STORY 1 NORTH LEFT PERIMETER SPACE ZN,55.26,2.2,469.672,8.500,212.421,0.000,0.500,0.200,0.300,1.000,General,23.484,422.705
 Lights Internal Gains Nominal, STORY 1 NORTH LOWER PERIMETER SPACE ZN OFFICE WHOLEBUILDING LIGHTS,NECB-A-LIGHTING,STORY 1 NORTH LOWER PERIMETER SPACE ZN,59.90,2.4,509.121,8.500,212.421,0.000,0.500,0.200,0.300,1.000,General,25.456,458.209
 Lights Internal Gains Nominal, STORY 1 NORTH RIGHT PERIMETER SPACE ZN OFFICE WHOLEBUILDING LIGHTS,NECB-A-LIGHTING,STORY 1 NORTH RIGHT PERIMETER SPACE ZN,55.26,2.2,469.672,8.500,212.421,0.000,0.500,0.200,0.300,1.000,General,23.484,422.705
 Lights Internal Gains Nominal, STORY 1 SOUTH CORE SPACE ZN OFFICE WHOLEBUILDING LIGHTS,NECB-A-LIGHTING,STORY 1 SOUTH CORE SPACE ZN,2626.84,105.1,22327.917,8.500,212.421,0.000,0.500,0.200,0.300,1.000,General,1116.396,20095.125
 Lights Internal Gains Nominal, STORY 1 SOUTH LOWER PERIMETER SPACE ZN OFFICE WHOLEBUILDING LIGHTS,NECB-A-LIGHTING,STORY 1 SOUTH LOWER PERIMETER SPACE ZN,170.41,6.8,1448.466,8.500,212.421,0.000,0.500,0.200,0.300,1.000,General,72.423,1303.619
 Lights Internal Gains Nominal, STORY 1 WEST CORE SPACE ZN OFFICE WHOLEBUILDING LIGHTS,NECB-A-LIGHTING,STORY 1 WEST CORE SPACE ZN,3230.61,129.3,27459.948,8.500,212.421,0.000,0.500,0.200,0.300,1.000,General,1372.997,24713.953
 Lights Internal Gains Nominal, STORY 1 WEST LEFT PERIMETER SPACE ZN OFFICE WHOLEBUILDING LIGHTS,NECB-A-LIGHTING,STORY 1 WEST LEFT PERIMETER SPACE ZN,170.41,6.8,1448.466,8.500,212.421,0.000,0.500,0.200,0.300,1.000,General,72.423,1303.619
 Lights Internal Gains Nominal, STORY 1 WEST RIGHT PERIMETER SPACE ZN OFFICE WHOLEBUILDING LIGHTS,NECB-A-LIGHTING,STORY 1 WEST RIGHT PERIMETER SPACE ZN,115.15,4.6,978.794,8.500,212.421,0.000,0.500,0.200,0.300,1.000,General,48.940,880.914
 Lights Internal Gains Nominal, STORY 2 EAST CORE SPACE ZN OFFICE WHOLEBUILDING LIGHTS,NECB-A-LIGHTING,STORY 2 EAST CORE SPACE ZN,3230.61,129.3,27459.948,8.500,212.421,0.000,0.500,0.200,0.300,1.000,General,1372.997,24713.953
 Lights Internal Gains Nominal, STORY 2 EAST LEFT PERIMETER SPACE ZN OFFICE WHOLEBUILDING LIGHTS,NECB-A-LIGHTING,STORY 2 EAST LEFT PERIMETER SPACE ZN,115.15,4.6,978.794,8.500,212.421,0.000,0.500,0.200,0.300,1.000,General,48.940,880.914
 Lights Internal Gains Nominal, STORY 2 EAST RIGHT PERIMETER SPACE ZN OFFICE WHOLEBUILDING LIGHTS,NECB-A-LIGHTING,STORY 2 EAST RIGHT PERIMETER SPACE ZN,170.41,6.8,1448.466,8.500,212.421,0.000,0.500,0.200,0.300,1.000,General,72.423,1303.619
 Lights Internal Gains Nominal, STORY 2 NORTH LEFT PERIMETER SPACE ZN OFFICE WHOLEBUILDING LIGHTS,NECB-A-LIGHTING,STORY 2 NORTH LEFT PERIMETER SPACE ZN,55.26,2.2,469.672,8.500,212.421,0.000,0.500,0.200,0.300,1.000,General,23.484,422.705
 Lights Internal Gains Nominal, STORY 2 NORTH LOWER PERIMETER SPACE ZN OFFICE WHOLEBUILDING LIGHTS,NECB-A-LIGHTING,STORY 2 NORTH LOWER PERIMETER SPACE ZN,59.90,2.4,509.121,8.500,212.421,0.000,0.500,0.200,0.300,1.000,General,25.456,458.209
 Lights Internal Gains Nominal, STORY 2 NORTH RIGHT PERIMETER SPACE ZN OFFICE WHOLEBUILDING LIGHTS,NECB-A-LIGHTING,STORY 2 NORTH RIGHT PERIMETER SPACE ZN,55.26,2.2,469.672,8.500,212.421,0.000,0.500,0.200,0.300,1.000,General,23.484,422.705
 Lights Internal Gains Nominal, STORY 2 SOUTH CORE SPACE ZN OFFICE WHOLEBUILDING LIGHTS,NECB-A-LIGHTING,STORY 2 SOUTH CORE SPACE ZN,2626.84,105.1,22327.917,8.500,212.421,0.000,0.500,0.200,0.300,1.000,General,1116.396,20095.125
 Lights Internal Gains Nominal, STORY 2 SOUTH LOWER PERIMETER SPACE ZN OFFICE WHOLEBUILDING LIGHTS,NECB-A-LIGHTING,STORY 2 SOUTH LOWER PERIMETER SPACE ZN,170.41,6.8,1448.466,8.500,212.421,0.000,0.500,0.200,0.300,1.000,General,72.423,1303.619
 Lights Internal Gains Nominal, STORY 2 WEST CORE SPACE ZN OFFICE WHOLEBUILDING LIGHTS,NECB-A-LIGHTING,STORY 2 WEST CORE SPACE ZN,3230.61,129.3,27459.948,8.500,212.421,0.000,0.500,0.200,0.300,1.000,General,1372.997,24713.953
 Lights Internal Gains Nominal, STORY 2 WEST LEFT PERIMETER SPACE ZN OFFICE WHOLEBUILDING LIGHTS,NECB-A-LIGHTING,STORY 2 WEST LEFT PERIMETER SPACE ZN,170.41,6.8,1448.466,8.500,212.421,0.000,0.500,0.200,0.300,1.000,General,72.423,1303.619
 Lights Internal Gains Nominal, STORY 2 WEST RIGHT PERIMETER SPACE ZN OFFICE WHOLEBUILDING LIGHTS,NECB-A-LIGHTING,STORY 2 WEST RIGHT PERIMETER SPACE ZN,115.15,4.6,978.794,8.500,212.421,0.000,0.500,0.200,0.300,1.000,General,48.940,880.914
! <ElectricEquipment Internal Gains Nominal>,Name,Schedule Name,Zone Name,Zone Floor Area {m2},# Zone Occupants,Equipment Level {W},Equipment/Floor Area {W/m2},Equipment per person {W/person},Fraction Latent,Fraction Radiant,Fraction Lost,Fraction Convected,End-Use SubCategory,Nominal Minimum Equipment Level {W},Nominal Maximum Equipment Level {W}
 ElectricEquipment Internal Gains Nominal, STORY 1 EAST CORE SPACE ZN OFFICE WHOLEBUILDING ELEC EQUIP,NECB-A-ELECTRIC-EQUIPMENT,STORY 1 EAST CORE SPACE ZN,3230.61,129.3,24238.382,7.503,187.500,0.000,0.500,0.000,0.500,General,4847.676,21814.543
 ElectricEquipment Internal Gains Nominal, STORY 1 EAST LEFT PERIMETER SPACE ZN OFFICE WHOLEBUILDING ELEC EQUIP,NECB-A-ELECTRIC-EQUIPMENT,STORY 1 EAST LEFT PERIMETER SPACE ZN,115.15,4.6,863.963,7.503,187.500,0.000,0.500,0.000,0.500,General,172.793,777.566
 ElectricEquipment Internal Gains Nominal, STORY 1 EAST RIGHT PERIMETER SPACE ZN OFFICE WHOLEBUILDING ELEC EQUIP,NECB-A-ELECTRIC-EQUIPMENT,STORY 1 EAST RIGHT PERIMETER SPACE ZN,170.41,6.8,1278.534,7.503,187.500,0.000,0.500,0.000,0.500,General,255.707,1150.680
 ElectricEquipment Internal Gains Nominal, STORY 1 NORTH LEFT PERIMETER SPACE ZN OFFICE WHOLEBUILDING ELEC EQUIP,NECB-A-ELECTRIC-EQUIPMENT,STORY 1 NORTH LEFT PERIMETER SPACE ZN,55.26,2.2,414.571,7.503,187.500,0.000,0.500,0.000,0.500,General,82.914,373.114
 ElectricEquipment Internal Gains Nominal, STORY 1 NORTH LOWER PERIMETER SPACE ZN OFFICE WHOLEBUILDING ELEC EQUIP,NECB-A-ELECTRIC-EQUIPMENT,STORY 1 NORTH LOWER PERIMETER SPACE ZN,59.90,2.4,449.392,7.503,187.500,0.000,0.500,0.000,0.500,General,89.878,404.453
 ElectricEquipment Internal Gains Nominal, STORY 1 NORTH RIGHT PERIMETER SPACE ZN OFFICE WHOLEBUILDING ELEC EQUIP,NECB-A-ELECTRIC-EQUIPMENT,STORY 1 NORTH RIGHT PERIMETER SPACE ZN,55.26,2.2,414.571,7.503,187.500,0.000,0.500,0.000,0.500,General,82.914,373.114
 ElectricEquipment Internal Gains Nominal, STORY 1 SOUTH CORE SPACE ZN OFFICE WHOLEBUILDING ELEC EQUIP,NECB-A-ELECTRIC-EQUIPMENT,STORY 1 SOUTH CORE SPACE ZN,2626.84,105.1,19708.434,7.503,187.500,0.000,0.500,0.000,0.500,General,3941.687,17737.590
 ElectricEquipment Internal Gains Nominal, STORY 1 SOUTH LOWER PERIMETER SPACE ZN OFFICE WHOLEBUILDING ELEC EQUIP,NECB-A-ELECTRIC-EQUIPMENT,STORY 1 SOUTH LOWER PERIMETER SPACE ZN,170.41,6.8,1278.534,7.503,187.500,0.000,0.500,0.000,0.500,General,255.707,1150.680
 ElectricEquipment Internal Gains Nominal, STORY 1 WEST CORE SPACE ZN OFFICE WHOLEBUILDING ELEC EQUIP,NECB-A-ELECTRIC-EQUIPMENT,STORY 1 WEST CORE SPACE ZN,3230.61,129.3,24238.382,7.503,187.500,0.000,0.500,0.000,0.500,General,4847.676,21814.543
 ElectricEquipment Internal Gains Nominal, STORY 1 WEST LEFT PERIMETER SPACE ZN OFFICE WHOLEBUILDING ELEC EQUIP,NECB-A-ELECTRIC-EQUIPMENT,STORY 1 WEST LEFT PERIMETER SPACE ZN,170.41,6.8,1278.534,7.503,187.500,0.000,0.500,0.000,0.500,General,255.707,1150.680
 ElectricEquipment Internal Gains Nominal, STORY 1 WEST RIGHT PERIMETER SPACE ZN OFFICE WHOLEBUILDING ELEC EQUIP,NECB-A-ELECTRIC-EQUIPMENT,STORY 1 WEST RIGHT PERIMETER SPACE ZN,115.15,4.6,863.963,7.503,187.500,0.000,0.500,0.000,0.500,General,172.793,777.566
 ElectricEquipment Internal Gains Nominal, STORY 2 EAST CORE SPACE ZN OFFICE WHOLEBUILDING ELEC EQUIP,NECB-A-ELECTRIC-EQUIPMENT,STORY 2 EAST CORE SPACE ZN,3230.61,129.3,24238.382,7.503,187.500,0.000,0.500,0.000,0.500,General,4847.676,21814.543
 ElectricEquipment Internal Gains Nominal, STORY 2 EAST LEFT PERIMETER SPACE ZN OFFICE WHOLEBUILDING ELEC EQUIP,NECB-A-ELECTRIC-EQUIPMENT,STORY 2 EAST LEFT PERIMETER SPACE ZN,115.15,4.6,863.963,7.503,187.500,0.000,0.500,0.000,0.500,General,172.793,777.566
 ElectricEquipment Internal Gains Nominal, STORY 2 EAST RIGHT PERIMETER SPACE ZN OFFICE WHOLEBUILDING ELEC EQUIP,NECB-A-ELECTRIC-EQUIPMENT,STORY 2 EAST RIGHT PERIMETER SPACE ZN,170.41,6.8,1278.534,7.503,187.500,0.000,0.500,0.000,0.500,General,255.707,1150.680
 ElectricEquipment Internal Gains Nominal, STORY 2 NORTH LEFT PERIMETER SPACE ZN OFFICE WHOLEBUILDING ELEC EQUIP,NECB-A-ELECTRIC-EQUIPMENT,STORY 2 NORTH LEFT PERIMETER SPACE ZN,55.26,2.2,414.571,7.503,187.500,0.000,0.500,0.000,0.500,General,82.914,373.114
 ElectricEquipment Internal Gains Nominal, STORY 2 NORTH LOWER PERIMETER SPACE ZN OFFICE WHOLEBUILDING ELEC EQUIP,NECB-A-ELECTRIC-EQUIPMENT,STORY 2 NORTH LOWER PERIMETER SPACE ZN,59.90,2.4,449.392,7.503,187.500,0.000,0.500,0.000,0.500,General,89.878,404.453
 ElectricEquipment Internal Gains Nominal, STORY 2 NORTH RIGHT PERIMETER SPACE ZN OFFICE WHOLEBUILDING ELEC EQUIP,NECB-A-ELECTRIC-EQUIPMENT,STORY 2 NORTH RIGHT PERIMETER SPACE ZN,55.26,2.2,414.571,7.503,187.500,0.000,0.500,0.000,0.500,General,82.914,373.114
 ElectricEquipment Internal Gains Nominal, STORY 2 SOUTH CORE SPACE ZN OFFICE WHOLEBUILDING ELEC EQUIP,NECB-A-ELECTRIC-EQUIPMENT,STORY 2 SOUTH CORE SPACE ZN,2626.84,105.1,19708.434,7.503,187.500,0.000,0.500,0.000,0.500,General,3941.687,17737.590
 ElectricEquipment Internal Gains Nominal, STORY 2 SOUTH LOWER PERIMETER SPACE ZN OFFICE WHOLEBUILDING ELEC EQUIP,NECB-A-ELECTRIC-EQUIPMENT,STORY 2 SOUTH LOWER PERIMETER SPACE ZN,170.41,6.8,1278.534,7.503,187.500,0.000,0.500,0.000,0.500,General,255.707,1150.680
 ElectricEquipment Internal Gains Nominal, STORY 2 WEST CORE SPACE ZN OFFICE WHOLEBUILDING ELEC EQUIP,NECB-A-ELECTRIC-EQUIPMENT,STORY 2 WEST CORE SPACE ZN,3230.61,129.3,24238.382,7.503,187.500,0.000,0.500,0.000,0.500,General,4847.676,21814.543
 ElectricEquipment Internal Gains Nominal, STORY 2 WEST LEFT PERIMETER SPACE ZN OFFICE WHOLEBUILDING ELEC EQUIP,NECB-A-ELECTRIC-EQUIPMENT,STORY 2 WEST LEFT PERIMETER SPACE ZN,170.41,6.8,1278.534,7.503,187.500,0.000,0.500,0.000,0.500,General,255.707,1150.680
 ElectricEquipment Internal Gains Nominal, STORY 2 WEST RIGHT PERIMETER SPACE ZN OFFICE WHOLEBUILDING ELEC EQUIP,NECB-A-ELECTRIC-EQUIPMENT,STORY 2 WEST RIGHT PERIMETER SPACE ZN,115.15,4.6,863.963,7.503,187.500,0.000,0.500,0.000,0.500,General,172.793,777.566
! <Shadowing/Sun Position Calculations Annual Simulations>, Calculation Method, Value {days}, Allowable Number Figures in Shadow Overlap {}, Polygon Clipping Algorithm, Sky Diffuse Modeling Algorithm, External Shading Calculation Method, Output External Shading Calculation Results, Disable Self-Shading Within Shading Zone Groups, Disable Self-Shading From Shading Zone Groups to Other Zones
Shadowing/Sun Position Calculations Annual Simulations,AverageOverDaysInFrequency,20,15000,SutherlandHodgman,SimpleSkyDiffuseModeling,InternalCalculation,No,No,No
! <ZoneInfiltration Airflow Stats Nominal>,Name,Schedule Name,Zone Name, Zone Floor Area {m2}, # Zone Occupants,Design Volume Flow Rate {m3/s},Volume Flow Rate/Floor Area {m3/s/m2},Volume Flow Rate/Exterior Surface Area {m3/s/m2},ACH - Air Changes per Hour,Equation A - Constant Term Coefficient {},Equation B - Temperature Term Coefficient {1/C},Equation C - Velocity Term Coefficient {s/m}, Equation D - Velocity Squared Term Coefficient {s2/m2}
 ZoneInfiltration Airflow Stats Nominal, STORY 1 EAST LEFT PERIMETER SPACE INFILTRATION,ALWAYS ON DISCRETE,STORY 1 EAST LEFT PERIMETER SPACE ZN,115.15,4.6,6.047E-002,5.252E-004,2.500E-004,0.591,0.000,0.000,0.224,0.000
 ZoneInfiltration Airflow Stats Nominal, STORY 1 EAST RIGHT PERIMETER SPACE INFILTRATION,ALWAYS ON DISCRETE,STORY 1 EAST RIGHT PERIMETER SPACE ZN,170.41,6.8,9.071E-002,5.323E-004,2.500E-004,0.599,0.000,0.000,0.224,0.000
 ZoneInfiltration Airflow Stats Nominal, STORY 1 NORTH LEFT PERIMETER SPACE INFILTRATION,ALWAYS ON DISCRETE,STORY 1 NORTH LEFT PERIMETER SPACE ZN,55.26,2.2,3.024E-002,5.472E-004,2.500E-004,0.616,0.000,0.000,0.224,0.000
 ZoneInfiltration Airflow Stats Nominal, STORY 1 NORTH LOWER PERIMETER SPACE INFILTRATION,ALWAYS ON DISCRETE,STORY 1 NORTH LOWER PERIMETER SPACE ZN,59.90,2.4,3.024E-002,5.048E-004,2.500E-004,0.568,0.000,0.000,0.224,0.000
 ZoneInfiltration Airflow Stats Nominal, STORY 1 NORTH RIGHT PERIMETER SPACE INFILTRATION,ALWAYS ON DISCRETE,STORY 1 NORTH RIGHT PERIMETER SPACE ZN,55.26,2.2,3.024E-002,5.472E-004,2.500E-004,0.616,0.000,0.000,0.224,0.000
 ZoneInfiltration Airflow Stats Nominal, STORY 1 SOUTH LOWER PERIMETER SPACE INFILTRATION,ALWAYS ON DISCRETE,STORY 1 SOUTH LOWER PERIMETER SPACE ZN,170.41,6.8,9.071E-002,5.323E-004,2.500E-004,0.599,0.000,0.000,0.224,0.000
 ZoneInfiltration Airflow Stats Nominal, STORY 1 WEST LEFT PERIMETER SPACE INFILTRATION,ALWAYS ON DISCRETE,STORY 1 WEST LEFT PERIMETER SPACE ZN,170.41,6.8,9.071E-002,5.323E-004,2.500E-004,0.599,0.000,0.000,0.224,0.000
 ZoneInfiltration Airflow Stats Nominal, STORY 1 WEST RIGHT PERIMETER SPACE INFILTRATION,ALWAYS ON DISCRETE,STORY 1 WEST RIGHT PERIMETER SPACE ZN,115.15,4.6,6.047E-002,5.252E-004,2.500E-004,0.591,0.000,0.000,0.224,0.000
 ZoneInfiltration Airflow Stats Nominal, STORY 2 EAST CORE SPACE INFILTRATION,ALWAYS ON DISCRETE,STORY 2 EAST CORE SPACE ZN,3230.61,129.3,0.808,2.500E-004,2.500E-004,0.281,0.000,0.000,0.224,0.000
 ZoneInfiltration Airflow Stats Nominal, STORY 2 EAST LEFT PERIMETER SPACE INFILTRATION,ALWAYS ON DISCRETE,STORY 2 EAST LEFT PERIMETER SPACE ZN,115.15,4.6,8.926E-002,7.752E-004,2.500E-004,0.872,0.000,0.000,0.224,0.000
 ZoneInfiltration Airflow Stats Nominal, STORY 2 EAST RIGHT PERIMETER SPACE INFILTRATION,ALWAYS ON DISCRETE,STORY 2 EAST RIGHT PERIMETER SPACE ZN,170.41,6.8,0.133,7.823E-004,2.500E-004,0.880,0.000,0.000,0.224,0.000
 ZoneInfiltration Airflow Stats Nominal, STORY 2 NORTH LEFT PERIMETER SPACE INFILTRATION,ALWAYS ON DISCRETE,STORY 2 NORTH LEFT PERIMETER SPACE ZN,55.26,2.2,4.405E-002,7.972E-004,2.500E-004,0.897,0.000,0.000,0.224,0.000
 ZoneInfiltration Airflow Stats Nominal, STORY 2 NORTH LOWER PERIMETER SPACE INFILTRATION,ALWAYS ON DISCRETE,STORY 2 NORTH LOWER PERIMETER SPACE ZN,59.90,2.4,4.521E-002,7.548E-004,2.500E-004,0.849,0.000,0.000,0.224,0.000
 ZoneInfiltration Airflow Stats Nominal, STORY 2 NORTH RIGHT PERIMETER SPACE INFILTRATION,ALWAYS ON DISCRETE,STORY 2 NORTH RIGHT PERIMETER SPACE ZN,55.26,2.2,4.405E-002,7.972E-004,2.500E-004,0.897,0.000,0.000,0.224,0.000
 ZoneInfiltration Airflow Stats Nominal, STORY 2 SOUTH CORE SPACE INFILTRATION,ALWAYS ON DISCRETE,STORY 2 SOUTH CORE SPACE ZN,2626.84,105.1,0.657,2.500E-004,2.500E-004,0.281,0.000,0.000,0.224,0.000
 ZoneInfiltration Airflow Stats Nominal, STORY 2 SOUTH LOWER PERIMETER SPACE INFILTRATION,ALWAYS ON DISCRETE,STORY 2 SOUTH LOWER PERIMETER SPACE ZN,170.41,6.8,0.133,7.823E-004,2.500E-004,0.880,0.000,0.000,0.224,0.000
 ZoneInfiltration Airflow Stats Nominal, STORY 2 WEST CORE SPACE INFILTRATION,ALWAYS ON DISCRETE,STORY 2 WEST CORE SPACE ZN,3230.61,129.3,0.808,2.500E-004,2.500E-004,0.281,0.000,0.000,0.224,0.000
 ZoneInfiltration Airflow Stats Nominal, STORY 2 WEST LEFT PERIMETER SPACE INFILTRATION,ALWAYS ON DISCRETE,STORY 2 WEST LEFT PERIMETER SPACE ZN,170.41,6.8,0.133,7.823E-004,2.500E-004,0.880,0.000,0.000,0.224,0.000
 ZoneInfiltration Airflow Stats Nominal, STORY 2 WEST RIGHT PERIMETER SPACE INFILTRATION,ALWAYS ON DISCRETE,STORY 2 WEST RIGHT PERIMETER SPACE ZN,115.15,4.6,8.926E-002,7.752E-004,2.500E-004,0.872,0.000,0.000,0.224,0.000
! <AirFlow Model>, Simple
 AirFlow Model, Simple
! <RoomAir Model>, Zone Name, Mixing/Mundt/UCSDDV/UCSDCV/UCSDUFI/UCSDUFE/User Defined
RoomAir Model,STORY 1 EAST CORE SPACE ZN,Mixing/Well-Stirred
RoomAir Model,STORY 1 EAST LEFT PERIMETER SPACE ZN,Mixing/Well-Stirred
RoomAir Model,STORY 1 EAST RIGHT PERIMETER SPACE ZN,Mixing/Well-Stirred
RoomAir Model,STORY 1 NORTH LEFT PERIMETER SPACE ZN,Mixing/Well-Stirred
RoomAir Model,STORY 1 NORTH LOWER PERIMETER SPACE ZN,Mixing/Well-Stirred
RoomAir Model,STORY 1 NORTH RIGHT PERIMETER SPACE ZN,Mixing/Well-Stirred
RoomAir Model,STORY 1 SOUTH CORE SPACE ZN,Mixing/Well-Stirred
RoomAir Model,STORY 1 SOUTH LOWER PERIMETER SPACE ZN,Mixing/Well-Stirred
RoomAir Model,STORY 1 WEST CORE SPACE ZN,Mixing/Well-Stirred
RoomAir Model,STORY 1 WEST LEFT PERIMETER SPACE ZN,Mixing/Well-Stirred
RoomAir Model,STORY 1 WEST RIGHT PERIMETER SPACE ZN,Mixing/Well-Stirred
RoomAir Model,STORY 2 EAST CORE SPACE ZN,Mixing/Well-Stirred
RoomAir Model,STORY 2 EAST LEFT PERIMETER SPACE ZN,Mixing/Well-Stirred
RoomAir Model,STORY 2 EAST RIGHT PERIMETER SPACE ZN,Mixing/Well-Stirred
RoomAir Model,STORY 2 NORTH LEFT PERIMETER SPACE ZN,Mixing/Well-Stirred
RoomAir Model,STORY 2 NORTH LOWER PERIMETER SPACE ZN,Mixing/Well-Stirred
RoomAir Model,STORY 2 NORTH RIGHT PERIMETER SPACE ZN,Mixing/Well-Stirred
RoomAir Model,STORY 2 SOUTH CORE SPACE ZN,Mixing/Well-Stirred
RoomAir Model,STORY 2 SOUTH LOWER PERIMETER SPACE ZN,Mixing/Well-Stirred
RoomAir Model,STORY 2 WEST CORE SPACE ZN,Mixing/Well-Stirred
RoomAir Model,STORY 2 WEST LEFT PERIMETER SPACE ZN,Mixing/Well-Stirred
RoomAir Model,STORY 2 WEST RIGHT PERIMETER SPACE ZN,Mixing/Well-Stirred
! <AirflowNetwork Model:Control>, No Multizone or Distribution/Multizone with Distribution/Multizone without Distribution/Multizone with Distribution only during Fan Operation
AirflowNetwork Model:Control,NoMultizoneOrDistribution
! <Zone Volume Capacitance Multiplier>, Sensible Heat Capacity Multiplier, Moisture Capacity Multiplier, Carbon Dioxide Capacity Multiplier, Generic Contaminant Capacity Multiplier
Zone Volume Capacitance Multiplier,   1.000 ,   1.000,   1.000,   1.000
! <Load Timesteps in Zone Design Calculation Averaging Window>, Value
 Load Timesteps in Zone Design Calculation Averaging Window,    6
! <Heating Sizing Factor Information>, Sizing Factor ID, Value
 Heating Sizing Factor Information, Global,   1.2500    
 Heating Sizing Factor Information, Zone STORY 1 EAST CORE SPACE ZN,   1.2500    
 Heating Sizing Factor Information, Zone STORY 1 EAST LEFT PERIMETER SPACE ZN,   1.2500    
 Heating Sizing Factor Information, Zone STORY 1 EAST RIGHT PERIMETER SPACE ZN,   1.2500    
 Heating Sizing Factor Information, Zone STORY 1 NORTH LEFT PERIMETER SPACE ZN,   1.2500    
 Heating Sizing Factor Information, Zone STORY 1 NORTH LOWER PERIMETER SPACE ZN,   1.2500    
 Heating Sizing Factor Information, Zone STORY 1 NORTH RIGHT PERIMETER SPACE ZN,   1.2500    
 Heating Sizing Factor Information, Zone STORY 1 SOUTH CORE SPACE ZN,   1.2500    
 Heating Sizing Factor Information, Zone STORY 1 SOUTH LOWER PERIMETER SPACE ZN,   1.2500    
 Heating Sizing Factor Information, Zone STORY 1 WEST CORE SPACE ZN,   1.2500    
 Heating Sizing Factor Information, Zone STORY 1 WEST LEFT PERIMETER SPACE ZN,   1.2500    
 Heating Sizing Factor Information, Zone STORY 1 WEST RIGHT PERIMETER SPACE ZN,   1.2500    
 Heating Sizing Factor Information, Zone STORY 2 EAST CORE SPACE ZN,   1.2500    
 Heating Sizing Factor Information, Zone STORY 2 EAST LEFT PERIMETER SPACE ZN,   1.2500    
 Heating Sizing Factor Information, Zone STORY 2 EAST RIGHT PERIMETER SPACE ZN,   1.2500    
 Heating Sizing Factor Information, Zone STORY 2 NORTH LEFT PERIMETER SPACE ZN,   1.2500    
 Heating Sizing Factor Information, Zone STORY 2 NORTH LOWER PERIMETER SPACE ZN,   1.2500    
 Heating Sizing Factor Information, Zone STORY 2 NORTH RIGHT PERIMETER SPACE ZN,   1.2500    
 Heating Sizing Factor Information, Zone STORY 2 SOUTH CORE SPACE ZN,   1.2500    
 Heating Sizing Factor Information, Zone STORY 2 SOUTH LOWER PERIMETER SPACE ZN,   1.2500    
 Heating Sizing Factor Information, Zone STORY 2 WEST CORE SPACE ZN,   1.2500    
 Heating Sizing Factor Information, Zone STORY 2 WEST LEFT PERIMETER SPACE ZN,   1.2500    
 Heating Sizing Factor Information, Zone STORY 2 WEST RIGHT PERIMETER SPACE ZN,   1.2500    
! <Cooling Sizing Factor Information>, Sizing Factor ID, Value
 Cooling Sizing Factor Information, Global,   1.1500    
 Cooling Sizing Factor Information, Zone STORY 1 EAST CORE SPACE ZN,   1.1500    
 Cooling Sizing Factor Information, Zone STORY 1 EAST LEFT PERIMETER SPACE ZN,   1.1500    
 Cooling Sizing Factor Information, Zone STORY 1 EAST RIGHT PERIMETER SPACE ZN,   1.1500    
 Cooling Sizing Factor Information, Zone STORY 1 NORTH LEFT PERIMETER SPACE ZN,   1.1500    
 Cooling Sizing Factor Information, Zone STORY 1 NORTH LOWER PERIMETER SPACE ZN,   1.1500    
 Cooling Sizing Factor Information, Zone STORY 1 NORTH RIGHT PERIMETER SPACE ZN,   1.1500    
 Cooling Sizing Factor Information, Zone STORY 1 SOUTH CORE SPACE ZN,   1.1500    
 Cooling Sizing Factor Information, Zone STORY 1 SOUTH LOWER PERIMETER SPACE ZN,   1.1500    
 Cooling Sizing Factor Information, Zone STORY 1 WEST CORE SPACE ZN,   1.1500    
 Cooling Sizing Factor Information, Zone STORY 1 WEST LEFT PERIMETER SPACE ZN,   1.1500    
 Cooling Sizing Factor Information, Zone STORY 1 WEST RIGHT PERIMETER SPACE ZN,   1.1500    
 Cooling Sizing Factor Information, Zone STORY 2 EAST CORE SPACE ZN,   1.1500    
 Cooling Sizing Factor Information, Zone STORY 2 EAST LEFT PERIMETER SPACE ZN,   1.1500    
 Cooling Sizing Factor Information, Zone STORY 2 EAST RIGHT PERIMETER SPACE ZN,   1.1500    
 Cooling Sizing Factor Information, Zone STORY 2 NORTH LEFT PERIMETER SPACE ZN,   1.1500    
 Cooling Sizing Factor Information, Zone STORY 2 NORTH LOWER PERIMETER SPACE ZN,   1.1500    
 Cooling Sizing Factor Information, Zone STORY 2 NORTH RIGHT PERIMETER SPACE ZN,   1.1500    
 Cooling Sizing Factor Information, Zone STORY 2 SOUTH CORE SPACE ZN,   1.1500    
 Cooling Sizing Factor Information, Zone STORY 2 SOUTH LOWER PERIMETER SPACE ZN,   1.1500    
 Cooling Sizing Factor Information, Zone STORY 2 WEST CORE SPACE ZN,   1.1500    
 Cooling Sizing Factor Information, Zone STORY 2 WEST LEFT PERIMETER SPACE ZN,   1.1500    
 Cooling Sizing Factor Information, Zone STORY 2 WEST RIGHT PERIMETER SPACE ZN,   1.1500    
! <Zone Sizing Information>, Zone Name, Load Type, Calc Des Load {W}, User Des Load {W}, Calc Des Air Flow Rate {m3/s}, User Des Air Flow Rate {m3/s}, Design Day Name, Date/Time of Peak, Temperature at Peak {C}, Humidity Ratio at Peak {kgWater/kgDryAir}, Floor Area {m2}, # Occupants, Calc Outdoor Air Flow Rate {m3/s}, Calc DOAS Heat Addition Rate {W}
 Zone Sizing Information, STORY 1 EAST CORE SPACE ZN, Cooling, 48012.47038, 55214.34094, 3.96016, 4.55418, OTTAWA=MACDONALD-CARTIER INTL ANN CLG .4% CONDNS DB=>MWB, 7/21 17:00:00, 29.18600, 1.30168E-002, 3230.61013, 129.27137, 1.29651, 0.00000
 Zone Sizing Information, STORY 1 EAST CORE SPACE ZN, Heating, 22223.60291, 27779.50364, 0.98323, 1.29651, OTTAWA=MACDONALD-CARTIER INTL ANN HTG 99.6% CONDNS DB, 1/21 08:00:00, -24.20000, 4.26780E-004, 3230.61013, 129.27137, 1.29651, 0.00000
 Zone Sizing Information, STORY 1 EAST LEFT PERIMETER SPACE ZN, Cooling, 23792.52402, 27361.40263, 1.96245, 2.25682, OTTAWA=MACDONALD-CARTIER INTL ANN CLG .4% CONDNS DB=>MWB, 7/21 08:50:00, 24.72517, 1.30168E-002, 115.15318, 4.60780, 4.62133E-002, 0.00000
 Zone Sizing Information, STORY 1 EAST LEFT PERIMETER SPACE ZN, Heating, 10463.99944, 13079.99930, 0.47632, 0.59540, OTTAWA=MACDONALD-CARTIER INTL ANN HTG 99.6% CONDNS DB, 1/21 08:00:00, -24.20000, 4.26780E-004, 115.15318, 4.60780, 4.62133E-002, 0.00000
 Zone Sizing Information, STORY 1 EAST RIGHT PERIMETER SPACE ZN, Cooling, 36611.85531, 42103.63361, 3.01983, 3.47281, OTTAWA=MACDONALD-CARTIER INTL ANN CLG .4% CONDNS DB=>MWB, 7/21 09:00:00, 25.04500, 1.30168E-002, 170.40922, 6.81885, 6.83886E-002, 0.00000
 Zone Sizing Information, STORY 1 EAST RIGHT PERIMETER SPACE ZN, Heating, 15714.57040, 19643.21301, 0.71537, 0.89421, OTTAWA=MACDONALD-CARTIER INTL ANN HTG 99.6% CONDNS DB, 1/21 08:00:00, -24.20000, 4.26780E-004, 170.40922, 6.81885, 6.83886E-002, 0.00000
 Zone Sizing Information, STORY 1 NORTH LEFT PERIMETER SPACE ZN, Cooling, 2728.89184, 3138.22562, 0.22509, 0.25886, OTTAWA=MACDONALD-CARTIER INTL ANN CLG .4% CONDNS DB=>MWB, 7/21 15:00:00, 30.60000, 1.30168E-002, 55.25604, 2.21104, 2.21754E-002, 0.00000
 Zone Sizing Information, STORY 1 NORTH LEFT PERIMETER SPACE ZN, Heating, 5372.45017, 6715.56271, 0.24461, 0.30577, OTTAWA=MACDONALD-CARTIER INTL ANN HTG 99.6% CONDNS DB, 1/21 08:00:00, -24.20000, 4.26780E-004, 55.25604, 2.21104, 2.21754E-002, 0.00000
 Zone Sizing Information, STORY 1 NORTH LOWER PERIMETER SPACE ZN, Cooling, 2590.85562, 2979.48396, 0.21371, 0.24576, OTTAWA=MACDONALD-CARTIER INTL ANN CLG .4% CONDNS DB=>MWB, 7/21 15:00:00, 30.60000, 1.30168E-002, 59.89713, 2.39676, 2.40379E-002, 0.00000
 Zone Sizing Information, STORY 1 NORTH LOWER PERIMETER SPACE ZN, Heating, 5297.09234, 6621.36542, 0.24110, 0.30138, OTTAWA=MACDONALD-CARTIER INTL ANN HTG 99.6% CONDNS DB, 1/21 08:00:00, -24.20000, 4.26780E-004, 59.89713, 2.39676, 2.40379E-002, 0.00000
 Zone Sizing Information, STORY 1 NORTH RIGHT PERIMETER SPACE ZN, Cooling, 2729.58909, 3139.02746, 0.22515, 0.25892, OTTAWA=MACDONALD-CARTIER INTL ANN CLG .4% CONDNS DB=>MWB, 7/21 15:00:00, 30.60000, 1.30168E-002, 55.25604, 2.21104, 2.21754E-002, 0.00000
 Zone Sizing Information, STORY 1 NORTH RIGHT PERIMETER SPACE ZN, Heating, 5371.72520, 6714.65650, 0.24458, 0.30573, OTTAWA=MACDONALD-CARTIER INTL ANN HTG 99.6% CONDNS DB, 1/21 08:00:00, -24.20000, 4.26780E-004, 55.25604, 2.21104, 2.21754E-002, 0.00000
 Zone Sizing Information, STORY 1 SOUTH CORE SPACE ZN, Cooling, 36233.53108, 41668.56074, 2.98861, 3.43690, OTTAWA=MACDONALD-CARTIER INTL ANN CLG .4% CONDNS DB=>MWB, 7/21 17:00:00, 29.18600, 1.30168E-002, 2626.83650, 105.11165, 1.05420, 0.00000
 Zone Sizing Information, STORY 1 SOUTH CORE SPACE ZN, Heating, 15780.32078, 19725.40097, 0.70030, 1.05420, OTTAWA=MACDONALD-CARTIER INTL ANN HTG 99.6% CONDNS DB, 1/21 08:00:00, -24.20000, 4.26780E-004, 2626.83650, 105.11165, 1.05420, 0.00000
 Zone Sizing Information, STORY 1 SOUTH LOWER PERIMETER SPACE ZN, Cooling, 17971.97443, 20667.77059, 1.48241, 1.70478, OTTAWA=MACDONALD-CARTIER INTL ANN CLG .4% CONDNS DB=>MWB, 7/21 13:00:00, 30.09500, 1.30168E-002, 170.40922, 6.81885, 6.83886E-002, 0.00000
 Zone Sizing Information, STORY 1 SOUTH LOWER PERIMETER SPACE ZN, Heating, 15610.50187, 19513.12734, 0.71061, 0.88827, OTTAWA=MACDONALD-CARTIER INTL ANN HTG 99.6% CONDNS DB, 1/21 08:00:00, -24.20000, 4.26780E-004, 170.40922, 6.81885, 6.83886E-002, 0.00000
 Zone Sizing Information, STORY 1 WEST CORE SPACE ZN, Cooling, 48972.08834, 56317.90159, 4.03931, 4.64521, OTTAWA=MACDONALD-CARTIER INTL ANN CLG .4% CONDNS DB=>MWB, 7/21 17:00:00, 29.18600, 1.30168E-002, 3230.61013, 129.27137, 1.29651, 0.00000
 Zone Sizing Information, STORY 1 WEST CORE SPACE ZN, Heating, 22290.62607, 27863.28259, 0.98615, 1.29651, OTTAWA=MACDONALD-CARTIER INTL ANN HTG 99.6% CONDNS DB, 1/21 08:00:00, -24.20000, 4.26780E-004, 3230.61013, 129.27137, 1.29651, 0.00000
 Zone Sizing Information, STORY 1 WEST LEFT PERIMETER SPACE ZN, Cooling, 39981.56885, 45978.80417, 3.29786, 3.79254, OTTAWA=MACDONALD-CARTIER INTL ANN CLG .4% CONDNS DB=>MWB, 7/21 17:20:00, 28.84933, 1.30168E-002, 170.40922, 6.81885, 6.83886E-002, 0.00000
 Zone Sizing Information, STORY 1 WEST LEFT PERIMETER SPACE ZN, Heating, 15910.16802, 19887.71003, 0.72430, 0.90538, OTTAWA=MACDONALD-CARTIER INTL ANN HTG 99.6% CONDNS DB, 1/21 08:00:00, -24.20000, 4.26780E-004, 170.40922, 6.81885, 6.83886E-002, 0.00000
 Zone Sizing Information, STORY 1 WEST RIGHT PERIMETER SPACE ZN, Cooling, 26328.49846, 30277.77323, 2.17170, 2.49745, OTTAWA=MACDONALD-CARTIER INTL ANN CLG .4% CONDNS DB=>MWB, 7/21 17:20:00, 28.84933, 1.30168E-002, 115.15318, 4.60780, 4.62133E-002, 0.00000
 Zone Sizing Information, STORY 1 WEST RIGHT PERIMETER SPACE ZN, Heating, 10596.50961, 13245.63702, 0.48238, 0.60297, OTTAWA=MACDONALD-CARTIER INTL ANN HTG 99.6% CONDNS DB, 1/21 08:00:00, -24.20000, 4.26780E-004, 115.15318, 4.60780, 4.62133E-002, 0.00000
 Zone Sizing Information, STORY 2 EAST CORE SPACE ZN, Cooling, 86914.57482, 99951.76104, 7.16944, 8.24485, OTTAWA=MACDONALD-CARTIER INTL ANN CLG .4% CONDNS DB=>MWB, 7/21 12:00:00, 29.28700, 1.30168E-002, 3230.61013, 129.27137, 1.29651, 0.00000
 Zone Sizing Information, STORY 2 EAST CORE SPACE ZN, Heating, 61180.40479, 76475.50599, 2.74402, 3.43003, OTTAWA=MACDONALD-CARTIER INTL ANN HTG 99.6% CONDNS DB, 1/21 08:00:00, -24.20000, 4.26780E-004, 3230.61013, 129.27137, 1.29651, 0.00000
 Zone Sizing Information, STORY 2 EAST LEFT PERIMETER SPACE ZN, Cooling, 25218.86017, 29001.68920, 2.08026, 2.39229, OTTAWA=MACDONALD-CARTIER INTL ANN CLG .4% CONDNS DB=>MWB, 7/21 09:00:00, 25.04500, 1.30168E-002, 115.15318, 4.60780, 4.62133E-002, 0.00000
 Zone Sizing Information, STORY 2 EAST LEFT PERIMETER SPACE ZN, Heating, 12533.59562, 15666.99452, 0.57074, 0.71342, OTTAWA=MACDONALD-CARTIER INTL ANN HTG 99.6% CONDNS DB, 1/21 08:00:00, -24.20000, 4.26780E-004, 115.15318, 4.60780, 4.62133E-002, 0.00000
 Zone Sizing Information, STORY 2 EAST RIGHT PERIMETER SPACE ZN, Cooling, 38218.41395, 43951.17604, 3.15257, 3.62545, OTTAWA=MACDONALD-CARTIER INTL ANN CLG .4% CONDNS DB=>MWB, 7/21 09:00:00, 25.04500, 1.30168E-002, 170.40922, 6.81885, 6.83886E-002, 0.00000
 Zone Sizing Information, STORY 2 EAST RIGHT PERIMETER SPACE ZN, Heating, 18711.10778, 23388.88473, 0.85206, 1.06508, OTTAWA=MACDONALD-CARTIER INTL ANN HTG 99.6% CONDNS DB, 1/21 08:00:00, -24.20000, 4.26780E-004, 170.40922, 6.81885, 6.83886E-002, 0.00000
 Zone Sizing Information, STORY 2 NORTH LEFT PERIMETER SPACE ZN, Cooling, 4079.87346, 4691.85448, 0.33655, 0.38703, OTTAWA=MACDONALD-CARTIER INTL ANN CLG .4% CONDNS DB=>MWB, 7/21 14:20:00, 30.60000, 1.30168E-002, 55.25604, 2.21104, 2.21754E-002, 0.00000
 Zone Sizing Information, STORY 2 NORTH LEFT PERIMETER SPACE ZN, Heating, 6345.54329, 7931.92911, 0.28900, 0.36125, OTTAWA=MACDONALD-CARTIER INTL ANN HTG 99.6% CONDNS DB, 1/21 08:00:00, -24.20000, 4.26780E-004, 55.25604, 2.21104, 2.21754E-002, 0.00000
 Zone Sizing Information, STORY 2 NORTH LOWER PERIMETER SPACE ZN, Cooling, 4148.83160, 4771.15634, 0.34223, 0.39357, OTTAWA=MACDONALD-CARTIER INTL ANN CLG .4% CONDNS DB=>MWB, 7/21 14:20:00, 30.60000, 1.30168E-002, 59.89713, 2.39676, 2.40379E-002, 0.00000
 Zone Sizing Information, STORY 2 NORTH LOWER PERIMETER SPACE ZN, Heating, 6419.51246, 8024.39058, 0.29231, 0.36539, OTTAWA=MACDONALD-CARTIER INTL ANN HTG 99.6% CONDNS DB, 1/21 08:00:00, -24.20000, 4.26780E-004, 59.89713, 2.39676, 2.40379E-002, 0.00000
 Zone Sizing Information, STORY 2 NORTH RIGHT PERIMETER SPACE ZN, Cooling, 4080.31121, 4692.35789, 0.33659, 0.38707, OTTAWA=MACDONALD-CARTIER INTL ANN CLG .4% CONDNS DB=>MWB, 7/21 14:20:00, 30.60000, 1.30168E-002, 55.25604, 2.21104, 2.21754E-002, 0.00000
 Zone Sizing Information, STORY 2 NORTH RIGHT PERIMETER SPACE ZN, Heating, 6344.82395, 7931.02993, 0.28897, 0.36121, OTTAWA=MACDONALD-CARTIER INTL ANN HTG 99.6% CONDNS DB, 1/21 08:00:00, -24.20000, 4.26780E-004, 55.25604, 2.21104, 2.21754E-002, 0.00000
 Zone Sizing Information, STORY 2 SOUTH CORE SPACE ZN, Cooling, 69891.32024, 80375.01828, 5.76498, 6.62973, OTTAWA=MACDONALD-CARTIER INTL ANN CLG .4% CONDNS DB=>MWB, 7/21 14:40:00, 30.60000, 1.30168E-002, 2626.83650, 105.11165, 1.05420, 0.00000
 Zone Sizing Information, STORY 2 SOUTH CORE SPACE ZN, Heating, 49100.23444, 61375.29305, 2.20168, 2.75211, OTTAWA=MACDONALD-CARTIER INTL ANN HTG 99.6% CONDNS DB, 1/21 08:00:00, -24.20000, 4.26780E-004, 2626.83650, 105.11165, 1.05420, 0.00000
 Zone Sizing Information, STORY 2 SOUTH LOWER PERIMETER SPACE ZN, Cooling, 21877.12979, 25158.69925, 1.80465, 2.07535, OTTAWA=MACDONALD-CARTIER INTL ANN CLG .4% CONDNS DB=>MWB, 7/21 13:00:00, 30.09500, 1.30168E-002, 170.40922, 6.81885, 6.83886E-002, 0.00000
 Zone Sizing Information, STORY 2 SOUTH LOWER PERIMETER SPACE ZN, Heating, 18660.95653, 23326.19566, 0.84977, 1.06222, OTTAWA=MACDONALD-CARTIER INTL ANN HTG 99.6% CONDNS DB, 1/21 08:00:00, -24.20000, 4.26780E-004, 170.40922, 6.81885, 6.83886E-002, 0.00000
 Zone Sizing Information, STORY 2 WEST CORE SPACE ZN, Cooling, 87348.16828, 100450.39352, 7.20499, 8.28574, OTTAWA=MACDONALD-CARTIER INTL ANN CLG .4% CONDNS DB=>MWB, 7/21 15:00:00, 30.60000, 1.30168E-002, 3230.61013, 129.27137, 1.29651, 0.00000
 Zone Sizing Information, STORY 2 WEST CORE SPACE ZN, Heating, 61242.74773, 76553.43466, 2.74687, 3.43358, OTTAWA=MACDONALD-CARTIER INTL ANN HTG 99.6% CONDNS DB, 1/21 08:00:00, -24.20000, 4.26780E-004, 3230.61013, 129.27137, 1.29651, 0.00000
 Zone Sizing Information, STORY 2 WEST LEFT PERIMETER SPACE ZN, Cooling, 41819.94642, 48092.93839, 3.44973, 3.96719, OTTAWA=MACDONALD-CARTIER INTL ANN CLG .4% CONDNS DB=>MWB, 7/21 17:10:00, 29.01767, 1.30168E-002, 170.40922, 6.81885, 6.83886E-002, 0.00000
 Zone Sizing Information, STORY 2 WEST LEFT PERIMETER SPACE ZN, Heating, 18915.53337, 23644.41672, 0.86140, 1.07675, OTTAWA=MACDONALD-CARTIER INTL ANN HTG 99.6% CONDNS DB, 1/21 08:00:00, -24.20000, 4.26780E-004, 170.40922, 6.81885, 6.83886E-002, 0.00000
 Zone Sizing Information, STORY 2 WEST RIGHT PERIMETER SPACE ZN, Cooling, 27736.88559, 31897.41842, 2.28802, 2.63122, OTTAWA=MACDONALD-CARTIER INTL ANN CLG .4% CONDNS DB=>MWB, 7/21 17:10:00, 29.01767, 1.30168E-002, 115.15318, 4.60780, 4.62133E-002, 0.00000
 Zone Sizing Information, STORY 2 WEST RIGHT PERIMETER SPACE ZN, Heating, 12668.44822, 15835.56028, 0.57690, 0.72112, OTTAWA=MACDONALD-CARTIER INTL ANN HTG 99.6% CONDNS DB, 1/21 08:00:00, -24.20000, 4.26780E-004, 115.15318, 4.60780, 4.62133E-002, 0.00000
! <Component Sizing Information>, Component Type, Component Name, Input Field Description, Value
 Component Sizing Information, ZoneHVAC:IdealLoadsAirSystem, ZONE HVAC IDEAL LOADS AIR SYSTEM 1, User-Specified Maximum Heating Air Flow Rate [m3/s], 0.00000
 Component Sizing Information, ZoneHVAC:IdealLoadsAirSystem, ZONE HVAC IDEAL LOADS AIR SYSTEM 1, User-Specified Maximum Cooling Air Flow Rate [m3/s], 0.00000
 Component Sizing Information, ZoneHVAC:IdealLoadsAirSystem, ZONE HVAC IDEAL LOADS AIR SYSTEM 2, User-Specified Maximum Heating Air Flow Rate [m3/s], 0.00000
 Component Sizing Information, ZoneHVAC:IdealLoadsAirSystem, ZONE HVAC IDEAL LOADS AIR SYSTEM 2, User-Specified Maximum Cooling Air Flow Rate [m3/s], 0.00000
 Component Sizing Information, ZoneHVAC:IdealLoadsAirSystem, ZONE HVAC IDEAL LOADS AIR SYSTEM 3, User-Specified Maximum Heating Air Flow Rate [m3/s], 0.00000
 Component Sizing Information, ZoneHVAC:IdealLoadsAirSystem, ZONE HVAC IDEAL LOADS AIR SYSTEM 3, User-Specified Maximum Cooling Air Flow Rate [m3/s], 0.00000
 Component Sizing Information, ZoneHVAC:IdealLoadsAirSystem, ZONE HVAC IDEAL LOADS AIR SYSTEM 4, User-Specified Maximum Heating Air Flow Rate [m3/s], 0.00000
 Component Sizing Information, ZoneHVAC:IdealLoadsAirSystem, ZONE HVAC IDEAL LOADS AIR SYSTEM 4, User-Specified Maximum Cooling Air Flow Rate [m3/s], 0.00000
 Component Sizing Information, ZoneHVAC:IdealLoadsAirSystem, ZONE HVAC IDEAL LOADS AIR SYSTEM 5, User-Specified Maximum Heating Air Flow Rate [m3/s], 0.00000
 Component Sizing Information, ZoneHVAC:IdealLoadsAirSystem, ZONE HVAC IDEAL LOADS AIR SYSTEM 5, User-Specified Maximum Cooling Air Flow Rate [m3/s], 0.00000
 Component Sizing Information, ZoneHVAC:IdealLoadsAirSystem, ZONE HVAC IDEAL LOADS AIR SYSTEM 6, User-Specified Maximum Heating Air Flow Rate [m3/s], 0.00000
 Component Sizing Information, ZoneHVAC:IdealLoadsAirSystem, ZONE HVAC IDEAL LOADS AIR SYSTEM 6, User-Specified Maximum Cooling Air Flow Rate [m3/s], 0.00000
 Component Sizing Information, ZoneHVAC:IdealLoadsAirSystem, ZONE HVAC IDEAL LOADS AIR SYSTEM 7, User-Specified Maximum Heating Air Flow Rate [m3/s], 0.00000
 Component Sizing Information, ZoneHVAC:IdealLoadsAirSystem, ZONE HVAC IDEAL LOADS AIR SYSTEM 7, User-Specified Maximum Cooling Air Flow Rate [m3/s], 0.00000
 Component Sizing Information, ZoneHVAC:IdealLoadsAirSystem, ZONE HVAC IDEAL LOADS AIR SYSTEM 8, User-Specified Maximum Heating Air Flow Rate [m3/s], 0.00000
 Component Sizing Information, ZoneHVAC:IdealLoadsAirSystem, ZONE HVAC IDEAL LOADS AIR SYSTEM 8, User-Specified Maximum Cooling Air Flow Rate [m3/s], 0.00000
 Component Sizing Information, ZoneHVAC:IdealLoadsAirSystem, ZONE HVAC IDEAL LOADS AIR SYSTEM 9, User-Specified Maximum Heating Air Flow Rate [m3/s], 0.00000
 Component Sizing Information, ZoneHVAC:IdealLoadsAirSystem, ZONE HVAC IDEAL LOADS AIR SYSTEM 9, User-Specified Maximum Cooling Air Flow Rate [m3/s], 0.00000
 Component Sizing Information, ZoneHVAC:IdealLoadsAirSystem, ZONE HVAC IDEAL LOADS AIR SYSTEM 10, User-Specified Maximum Heating Air Flow Rate [m3/s], 0.00000
 Component Sizing Information, ZoneHVAC:IdealLoadsAirSystem, ZONE HVAC IDEAL LOADS AIR SYSTEM 10, User-Specified Maximum Cooling Air Flow Rate [m3/s], 0.00000
 Component Sizing Information, ZoneHVAC:IdealLoadsAirSystem, ZONE HVAC IDEAL LOADS AIR SYSTEM 11, User-Specified Maximum Heating Air Flow Rate [m3/s], 0.00000
 Component Sizing Information, ZoneHVAC:IdealLoadsAirSystem, ZONE HVAC IDEAL LOADS AIR SYSTEM 11, User-Specified Maximum Cooling Air Flow Rate [m3/s], 0.00000
 Component Sizing Information, ZoneHVAC:IdealLoadsAirSystem, ZONE HVAC IDEAL LOADS AIR SYSTEM 12, User-Specified Maximum Heating Air Flow Rate [m3/s], 0.00000
 Component Sizing Information, ZoneHVAC:IdealLoadsAirSystem, ZONE HVAC IDEAL LOADS AIR SYSTEM 12, User-Specified Maximum Cooling Air Flow Rate [m3/s], 0.00000
 Component Sizing Information, ZoneHVAC:IdealLoadsAirSystem, ZONE HVAC IDEAL LOADS AIR SYSTEM 13, User-Specified Maximum Heating Air Flow Rate [m3/s], 0.00000
 Component Sizing Information, ZoneHVAC:IdealLoadsAirSystem, ZONE HVAC IDEAL LOADS AIR SYSTEM 13, User-Specified Maximum Cooling Air Flow Rate [m3/s], 0.00000
 Component Sizing Information, ZoneHVAC:IdealLoadsAirSystem, ZONE HVAC IDEAL LOADS AIR SYSTEM 14, User-Specified Maximum Heating Air Flow Rate [m3/s], 0.00000
 Component Sizing Information, ZoneHVAC:IdealLoadsAirSystem, ZONE HVAC IDEAL LOADS AIR SYSTEM 14, User-Specified Maximum Cooling Air Flow Rate [m3/s], 0.00000
 Component Sizing Information, ZoneHVAC:IdealLoadsAirSystem, ZONE HVAC IDEAL LOADS AIR SYSTEM 15, User-Specified Maximum Heating Air Flow Rate [m3/s], 0.00000
 Component Sizing Information, ZoneHVAC:IdealLoadsAirSystem, ZONE HVAC IDEAL LOADS AIR SYSTEM 15, User-Specified Maximum Cooling Air Flow Rate [m3/s], 0.00000
 Component Sizing Information, ZoneHVAC:IdealLoadsAirSystem, ZONE HVAC IDEAL LOADS AIR SYSTEM 16, User-Specified Maximum Heating Air Flow Rate [m3/s], 0.00000
 Component Sizing Information, ZoneHVAC:IdealLoadsAirSystem, ZONE HVAC IDEAL LOADS AIR SYSTEM 16, User-Specified Maximum Cooling Air Flow Rate [m3/s], 0.00000
 Component Sizing Information, ZoneHVAC:IdealLoadsAirSystem, ZONE HVAC IDEAL LOADS AIR SYSTEM 17, User-Specified Maximum Heating Air Flow Rate [m3/s], 0.00000
 Component Sizing Information, ZoneHVAC:IdealLoadsAirSystem, ZONE HVAC IDEAL LOADS AIR SYSTEM 17, User-Specified Maximum Cooling Air Flow Rate [m3/s], 0.00000
 Component Sizing Information, ZoneHVAC:IdealLoadsAirSystem, ZONE HVAC IDEAL LOADS AIR SYSTEM 18, User-Specified Maximum Heating Air Flow Rate [m3/s], 0.00000
 Component Sizing Information, ZoneHVAC:IdealLoadsAirSystem, ZONE HVAC IDEAL LOADS AIR SYSTEM 18, User-Specified Maximum Cooling Air Flow Rate [m3/s], 0.00000
 Component Sizing Information, ZoneHVAC:IdealLoadsAirSystem, ZONE HVAC IDEAL LOADS AIR SYSTEM 19, User-Specified Maximum Heating Air Flow Rate [m3/s], 0.00000
 Component Sizing Information, ZoneHVAC:IdealLoadsAirSystem, ZONE HVAC IDEAL LOADS AIR SYSTEM 19, User-Specified Maximum Cooling Air Flow Rate [m3/s], 0.00000
 Component Sizing Information, ZoneHVAC:IdealLoadsAirSystem, ZONE HVAC IDEAL LOADS AIR SYSTEM 20, User-Specified Maximum Heating Air Flow Rate [m3/s], 0.00000
 Component Sizing Information, ZoneHVAC:IdealLoadsAirSystem, ZONE HVAC IDEAL LOADS AIR SYSTEM 20, User-Specified Maximum Cooling Air Flow Rate [m3/s], 0.00000
 Component Sizing Information, ZoneHVAC:IdealLoadsAirSystem, ZONE HVAC IDEAL LOADS AIR SYSTEM 21, User-Specified Maximum Heating Air Flow Rate [m3/s], 0.00000
 Component Sizing Information, ZoneHVAC:IdealLoadsAirSystem, ZONE HVAC IDEAL LOADS AIR SYSTEM 21, User-Specified Maximum Cooling Air Flow Rate [m3/s], 0.00000
 Component Sizing Information, ZoneHVAC:IdealLoadsAirSystem, ZONE HVAC IDEAL LOADS AIR SYSTEM 22, User-Specified Maximum Heating Air Flow Rate [m3/s], 0.00000
 Component Sizing Information, ZoneHVAC:IdealLoadsAirSystem, ZONE HVAC IDEAL LOADS AIR SYSTEM 22, User-Specified Maximum Cooling Air Flow Rate [m3/s], 0.00000
! <Environment>,Environment Name,Environment Type, Start Date, End Date, Start DayOfWeek, Duration {#days}, Source:Start DayOfWeek,  Use Daylight Saving, Use Holidays, Apply Weekend Holiday Rule,  Use Rain Values, Use Snow Values
! <Environment:Special Days>, Special Day Name, Special Day Type, Source, Start Date, Duration {#days}
! <Environment:Daylight Saving>, Daylight Saving Indicator, Source, Start Date, End Date
! <Environment:WarmupDays>, NumberofWarmupDays
Environment,OTTAWA=MACDONALD-CARTIER INTL ANN CLG .4% CONDNS DB=>MWB,SizingPeriod:DesignDay,07/21,07/21,SummerDesignDay,1,N/A,N/A,N/A,N/A,N/A,N/A
Environment:Daylight Saving,No,SizingPeriod:DesignDay
! <Environment:Design Day Data>, Max Dry-Bulb Temp {C}, Temp Range {dC}, Temp Range Ind Type, Hum Ind Value at Max Temp, Hum Ind Type,Pressure {Pa}, Wind Direction {deg CW from N}, Wind Speed {m/s}, Clearness, Rain, Snow
! <Environment:Design Day Misc>,DayOfYear,ASHRAE A Coeff,ASHRAE B Coeff,ASHRAE C Coeff,Solar Constant-Annual Variation,Eq of Time {minutes}, Solar Declination Angle {deg}, Solar Model
Environment:Design Day Data,30.60,10.10,DefaultMultipliers,99952,220,4.6,0.00,No,No
Environment:Design Day Misc,202,1084.4,0.2082,0.1365,1.0,-6.23,20.6,ASHRAETau
Environment:WarmupDays,  6
! <Tabular Report>,Style,Unit Conversion
Tabular Report,HTML,None
! <Warmup Convergence Information>,Zone Name,Environment Type/Name,Average Warmup Temperature Difference {deltaC},Std Dev Warmup Temperature Difference {deltaC},Max Temperature Pass/Fail Convergence,Min Temperature Pass/Fail Convergence,Average Warmup Load Difference {W},Std Dev Warmup Load Difference {W},Heating Load Pass/Fail Convergence,Cooling Load Pass/Fail Convergence
 Warmup Convergence Information,STORY 1 EAST CORE SPACE ZN,SizingPeriod: OTTAWA=MACDONALD-CARTIER INTL ANN CLG .4% CONDNS DB=>MWB,2.5138542589E-002,6.4183437068E-002,Pass,Pass,0.2687690126,2.5717681831,Pass,Pass
 Warmup Convergence Information,STORY 1 EAST LEFT PERIMETER SPACE ZN,SizingPeriod: OTTAWA=MACDONALD-CARTIER INTL ANN CLG .4% CONDNS DB=>MWB,0.1278525215,0.6743912942,Pass,Pass,0.2863118649,2.7495352560,Pass,Pass
 Warmup Convergence Information,STORY 1 EAST RIGHT PERIMETER SPACE ZN,SizingPeriod: OTTAWA=MACDONALD-CARTIER INTL ANN CLG .4% CONDNS DB=>MWB,0.1419341726,0.7376874292,Pass,Pass,0.2857482831,2.7324978309,Pass,Pass
 Warmup Convergence Information,STORY 1 NORTH LEFT PERIMETER SPACE ZN,SizingPeriod: OTTAWA=MACDONALD-CARTIER INTL ANN CLG .4% CONDNS DB=>MWB,4.0908155260E-002,0.1476551393,Pass,Pass,0.3252858172,3.0448099625,Pass,Pass
 Warmup Convergence Information,STORY 1 NORTH LOWER PERIMETER SPACE ZN,SizingPeriod: OTTAWA=MACDONALD-CARTIER INTL ANN CLG .4% CONDNS DB=>MWB,2.2957968304E-002,6.4068657584E-002,Pass,Pass,0.3196727932,3.1351489693,Pass,Pass
 Warmup Convergence Information,STORY 1 NORTH RIGHT PERIMETER SPACE ZN,SizingPeriod: OTTAWA=MACDONALD-CARTIER INTL ANN CLG .4% CONDNS DB=>MWB,4.1137636558E-002,0.1482069825,Pass,Pass,0.3254989888,3.0489943747,Pass,Pass
 Warmup Convergence Information,STORY 1 SOUTH CORE SPACE ZN,SizingPeriod: OTTAWA=MACDONALD-CARTIER INTL ANN CLG .4% CONDNS DB=>MWB,2.0988020242E-002,4.8186674140E-002,Pass,Pass,0.3004505146,2.8515371386,Pass,Pass
 Warmup Convergence Information,STORY 1 SOUTH LOWER PERIMETER SPACE ZN,SizingPeriod: OTTAWA=MACDONALD-CARTIER INTL ANN CLG .4% CONDNS DB=>MWB,2.8410278466E-002,8.7196442645E-002,Pass,Pass,0.2976495433,2.7865505275,Pass,Pass
 Warmup Convergence Information,STORY 1 WEST CORE SPACE ZN,SizingPeriod: OTTAWA=MACDONALD-CARTIER INTL ANN CLG .4% CONDNS DB=>MWB,2.5398946923E-002,6.4335413032E-002,Pass,Pass,0.2626396046,2.5235609448,Pass,Pass
 Warmup Convergence Information,STORY 1 WEST LEFT PERIMETER SPACE ZN,SizingPeriod: OTTAWA=MACDONALD-CARTIER INTL ANN CLG .4% CONDNS DB=>MWB,5.2208820219E-002,0.1986360190,Pass,Pass,0.2948866582,2.6083771647,Pass,Pass
 Warmup Convergence Information,STORY 1 WEST RIGHT PERIMETER SPACE ZN,SizingPeriod: OTTAWA=MACDONALD-CARTIER INTL ANN CLG .4% CONDNS DB=>MWB,4.9800577237E-002,0.1882647773,Pass,Pass,0.2962216549,2.6065594404,Pass,Pass
 Warmup Convergence Information,STORY 2 EAST CORE SPACE ZN,SizingPeriod: OTTAWA=MACDONALD-CARTIER INTL ANN CLG .4% CONDNS DB=>MWB,2.5171401771E-002,5.8796331090E-002,Pass,Pass,0.2953851364,2.6571168836,Pass,Pass
 Warmup Convergence Information,STORY 2 EAST LEFT PERIMETER SPACE ZN,SizingPeriod: OTTAWA=MACDONALD-CARTIER INTL ANN CLG .4% CONDNS DB=>MWB,0.1380227662,0.7228031034,Pass,Pass,0.3166269074,3.0435633241,Pass,Pass
 Warmup Convergence Information,STORY 2 EAST RIGHT PERIMETER SPACE ZN,SizingPeriod: OTTAWA=MACDONALD-CARTIER INTL ANN CLG .4% CONDNS DB=>MWB,0.1426692661,0.7448717814,Pass,Pass,0.3146492487,3.0201766290,Pass,Pass
 Warmup Convergence Information,STORY 2 NORTH LEFT PERIMETER SPACE ZN,SizingPeriod: OTTAWA=MACDONALD-CARTIER INTL ANN CLG .4% CONDNS DB=>MWB,4.1324499694E-002,0.1419656122,Pass,Pass,0.3638546594,3.4357841720,Pass,Pass
 Warmup Convergence Information,STORY 2 NORTH LOWER PERIMETER SPACE ZN,SizingPeriod: OTTAWA=MACDONALD-CARTIER INTL ANN CLG .4% CONDNS DB=>MWB,3.1538626171E-002,9.1700123087E-002,Pass,Pass,0.3691143793,3.5262805897,Pass,Pass
 Warmup Convergence Information,STORY 2 NORTH RIGHT PERIMETER SPACE ZN,SizingPeriod: OTTAWA=MACDONALD-CARTIER INTL ANN CLG .4% CONDNS DB=>MWB,4.1346854059E-002,0.1412665943,Pass,Pass,0.3643687930,3.4430918074,Pass,Pass
 Warmup Convergence Information,STORY 2 SOUTH CORE SPACE ZN,SizingPeriod: OTTAWA=MACDONALD-CARTIER INTL ANN CLG .4% CONDNS DB=>MWB,2.0855928617E-002,4.7697861325E-002,Pass,Pass,0.3073049331,2.8577843275,Pass,Pass
 Warmup Convergence Information,STORY 2 SOUTH LOWER PERIMETER SPACE ZN,SizingPeriod: OTTAWA=MACDONALD-CARTIER INTL ANN CLG .4% CONDNS DB=>MWB,2.7333800490E-002,7.3513071399E-002,Pass,Pass,0.3260184201,3.1026109774,Pass,Pass
 Warmup Convergence Information,STORY 2 WEST CORE SPACE ZN,SizingPeriod: OTTAWA=MACDONALD-CARTIER INTL ANN CLG .4% CONDNS DB=>MWB,2.4784879753E-002,5.8322206259E-002,Pass,Pass,0.2896875758,2.6212708210,Pass,Pass
 Warmup Convergence Information,STORY 2 WEST LEFT PERIMETER SPACE ZN,SizingPeriod: OTTAWA=MACDONALD-CARTIER INTL ANN CLG .4% CONDNS DB=>MWB,4.2011796169E-002,0.1443067322,Pass,Pass,0.3098342928,2.7824196753,Pass,Pass
 Warmup Convergence Information,STORY 2 WEST RIGHT PERIMETER SPACE ZN,SizingPeriod: OTTAWA=MACDONALD-CARTIER INTL ANN CLG .4% CONDNS DB=>MWB,4.0738785859E-002,0.1387787947,Pass,Pass,0.3117973171,2.8068027518,Pass,Pass
Environment,OTTAWA=MACDONALD-CARTIER INTL ANN HTG 99.6% CONDNS DB,SizingPeriod:DesignDay,01/21,01/21,WinterDesignDay,1,N/A,N/A,N/A,N/A,N/A,N/A
Environment:Daylight Saving,No,SizingPeriod:DesignDay
Environment:Design Day Data,-24.20,0.00,DefaultMultipliers,99952,290,3.5,0.00,No,No
Environment:Design Day Misc, 21,1229.0,0.1415,5.7310E-002,1.0,-11.15,-20.1,ASHRAEClearSky
Environment:WarmupDays,  6
 Warmup Convergence Information,STORY 1 EAST CORE SPACE ZN,SizingPeriod: OTTAWA=MACDONALD-CARTIER INTL ANN HTG 99.6% CONDNS DB,6.0746921203E-002,0.3088953386,Pass,Pass,0.2794449944,0.9302647588,Pass,Pass
 Warmup Convergence Information,STORY 1 EAST LEFT PERIMETER SPACE ZN,SizingPeriod: OTTAWA=MACDONALD-CARTIER INTL ANN HTG 99.6% CONDNS DB,5.5555555556E-002,0.3584476715,Pass,Pass,3.3467987933E-002,0.1602929164,Pass,Pass
 Warmup Convergence Information,STORY 1 EAST RIGHT PERIMETER SPACE ZN,SizingPeriod: OTTAWA=MACDONALD-CARTIER INTL ANN HTG 99.6% CONDNS DB,5.5555555556E-002,0.3591414843,Pass,Pass,3.2453067388E-002,0.1538267884,Pass,Pass
 Warmup Convergence Information,STORY 1 NORTH LEFT PERIMETER SPACE ZN,SizingPeriod: OTTAWA=MACDONALD-CARTIER INTL ANN HTG 99.6% CONDNS DB,5.5555555556E-002,0.3607919061,Pass,Pass,3.1204843936E-002,0.1477651730,Pass,Pass
 Warmup Convergence Information,STORY 1 NORTH LOWER PERIMETER SPACE ZN,SizingPeriod: OTTAWA=MACDONALD-CARTIER INTL ANN HTG 99.6% CONDNS DB,5.5555555556E-002,0.3573281478,Pass,Pass,3.5469766616E-002,0.1739419507,Pass,Pass
 Warmup Convergence Information,STORY 1 NORTH RIGHT PERIMETER SPACE ZN,SizingPeriod: OTTAWA=MACDONALD-CARTIER INTL ANN HTG 99.6% CONDNS DB,5.5555555556E-002,0.3607897279,Pass,Pass,3.1206564640E-002,0.1477748480,Pass,Pass
 Warmup Convergence Information,STORY 1 SOUTH CORE SPACE ZN,SizingPeriod: OTTAWA=MACDONALD-CARTIER INTL ANN HTG 99.6% CONDNS DB,6.0775482380E-002,0.3082512425,Pass,Pass,0.3172880302,1.0968246676,Pass,Pass
 Warmup Convergence Information,STORY 1 SOUTH LOWER PERIMETER SPACE ZN,SizingPeriod: OTTAWA=MACDONALD-CARTIER INTL ANN HTG 99.6% CONDNS DB,5.5555555556E-002,0.3590618169,Pass,Pass,3.2527777289E-002,0.1542797637,Pass,Pass
 Warmup Convergence Information,STORY 1 WEST CORE SPACE ZN,SizingPeriod: OTTAWA=MACDONALD-CARTIER INTL ANN HTG 99.6% CONDNS DB,6.0745278663E-002,0.3089028602,Pass,Pass,0.2789451439,0.9287596445,Pass,Pass
 Warmup Convergence Information,STORY 1 WEST LEFT PERIMETER SPACE ZN,SizingPeriod: OTTAWA=MACDONALD-CARTIER INTL ANN HTG 99.6% CONDNS DB,5.5555555556E-002,0.3596610125,Pass,Pass,3.1812366084E-002,0.1499921625,Pass,Pass
 Warmup Convergence Information,STORY 1 WEST RIGHT PERIMETER SPACE ZN,SizingPeriod: OTTAWA=MACDONALD-CARTIER INTL ANN HTG 99.6% CONDNS DB,5.5555555556E-002,0.3589726724,Pass,Pass,3.2764267485E-002,0.1559691207,Pass,Pass
 Warmup Convergence Information,STORY 2 EAST CORE SPACE ZN,SizingPeriod: OTTAWA=MACDONALD-CARTIER INTL ANN HTG 99.6% CONDNS DB,5.7984812192E-002,0.3266610542,Pass,Pass,0.1466319802,0.4952746079,Pass,Pass
 Warmup Convergence Information,STORY 2 EAST LEFT PERIMETER SPACE ZN,SizingPeriod: OTTAWA=MACDONALD-CARTIER INTL ANN HTG 99.6% CONDNS DB,5.5555555556E-002,0.3663942605,Pass,Pass,2.5719159055E-002,0.1080165957,Pass,Pass
 Warmup Convergence Information,STORY 2 EAST RIGHT PERIMETER SPACE ZN,SizingPeriod: OTTAWA=MACDONALD-CARTIER INTL ANN HTG 99.6% CONDNS DB,5.5555555556E-002,0.3667675585,Pass,Pass,2.5242861993E-002,0.1054990965,Pass,Pass
 Warmup Convergence Information,STORY 2 NORTH LEFT PERIMETER SPACE ZN,SizingPeriod: OTTAWA=MACDONALD-CARTIER INTL ANN HTG 99.6% CONDNS DB,5.5555555556E-002,0.3678559049,Pass,Pass,2.4550257121E-002,0.1028709208,Pass,Pass
 Warmup Convergence Information,STORY 2 NORTH LOWER PERIMETER SPACE ZN,SizingPeriod: OTTAWA=MACDONALD-CARTIER INTL ANN HTG 99.6% CONDNS DB,5.5555555556E-002,0.3656920265,Pass,Pass,2.6836632778E-002,0.1149241280,Pass,Pass
 Warmup Convergence Information,STORY 2 NORTH RIGHT PERIMETER SPACE ZN,SizingPeriod: OTTAWA=MACDONALD-CARTIER INTL ANN HTG 99.6% CONDNS DB,5.5555555556E-002,0.3678531211,Pass,Pass,2.4552684481E-002,0.1028833985,Pass,Pass
 Warmup Convergence Information,STORY 2 SOUTH CORE SPACE ZN,SizingPeriod: OTTAWA=MACDONALD-CARTIER INTL ANN HTG 99.6% CONDNS DB,5.8028054570E-002,0.3263319406,Pass,Pass,0.1682201107,0.6031294902,Pass,Pass
 Warmup Convergence Information,STORY 2 SOUTH LOWER PERIMETER SPACE ZN,SizingPeriod: OTTAWA=MACDONALD-CARTIER INTL ANN HTG 99.6% CONDNS DB,5.5555555556E-002,0.3667183839,Pass,Pass,2.5273731571E-002,0.1055928123,Pass,Pass
 Warmup Convergence Information,STORY 2 WEST CORE SPACE ZN,SizingPeriod: OTTAWA=MACDONALD-CARTIER INTL ANN HTG 99.6% CONDNS DB,5.7980443927E-002,0.3266700600,Pass,Pass,0.1459220356,0.4929718590,Pass,Pass
 Warmup Convergence Information,STORY 2 WEST LEFT PERIMETER SPACE ZN,SizingPeriod: OTTAWA=MACDONALD-CARTIER INTL ANN HTG 99.6% CONDNS DB,5.5555555556E-002,0.3671226964,Pass,Pass,2.4899269401E-002,0.1039553921,Pass,Pass
 Warmup Convergence Information,STORY 2 WEST RIGHT PERIMETER SPACE ZN,SizingPeriod: OTTAWA=MACDONALD-CARTIER INTL ANN HTG 99.6% CONDNS DB,5.5555555556E-002,0.3667466626,Pass,Pass,2.5331472235E-002,0.1060008026,Pass,Pass
! <Program Control Information:Threads/Parallel Sims>, Threading Supported,Maximum Number of Threads, Env Set Threads (OMP_NUM_THREADS), EP Env Set Threads (EP_OMP_NUM_THREADS), IDF Set Threads, Number of Threads Used (Interior Radiant Exchange), Number Nominal Surfaces, Number Parallel Sims
Program Control:Threads/Parallel Sims, No,1, N/A, N/A, N/A, N/A, N/A, N/A
End of Data
