Program Version,EnergyPlus, Version 8.9.0-eba93e8e1b, YMD=2019.08.13 11:07
! <Version>, Version ID
 Version, 8.9
! <Timesteps per Hour>, #TimeSteps, Minutes per TimeStep {minutes}
 Timesteps per Hour,  1, 60
! <System Convergence Limits>, Minimum System TimeStep {minutes}, Max HVAC Iterations, Minimum Plant Iterations, Maximum Plant Iterations
 System Convergence Limits, 5, 25, 2, 8
! <Simulation Control>, Do Zone Sizing, Do System Sizing, Do Plant Sizing, Do Design Days, Do Weather Simulation, Do HVAC Sizing Simulation
 Simulation Control, Yes, Yes, Yes, No, Yes, No
! <Output Reporting Tolerances>, Tolerance for Time Heating Setpoint Not Met, Tolerance for Zone Cooling Setpoint Not Met Time
 Output Reporting Tolerances, 1.000, 1.000, 
! <Site:GroundTemperature:BuildingSurface>,Jan{C},Feb{C},Mar{C},Apr{C},May{C},Jun{C},Jul{C},Aug{C},Sep{C},Oct{C},Nov{C},Dec{C}
 Site:GroundTemperature:BuildingSurface,  19.53,  19.50,  19.54,  19.60,  20.00,  21.64,  22.23,  22.38,  21.45,  20.12,  19.80,  19.63
! <Site:GroundTemperature:FCfactorMethod>,Jan{C},Feb{C},Mar{C},Apr{C},May{C},Jun{C},Jul{C},Aug{C},Sep{C},Oct{C},Nov{C},Dec{C}
 Site:GroundTemperature:FCfactorMethod,  -5.25,  -6.52,  -4.28,  -0.76,   8.43,  15.52,  20.30,  21.76,  19.28,  13.77,   6.41,  -0.41
! <Site:GroundTemperature:Shallow>,Jan{C},Feb{C},Mar{C},Apr{C},May{C},Jun{C},Jul{C},Aug{C},Sep{C},Oct{C},Nov{C},Dec{C}
 Site:GroundTemperature:Shallow,  13.00,  13.00,  13.00,  13.00,  13.00,  13.00,  13.00,  13.00,  13.00,  13.00,  13.00,  13.00
! <Site:GroundTemperature:Deep>,Jan{C},Feb{C},Mar{C},Apr{C},May{C},Jun{C},Jul{C},Aug{C},Sep{C},Oct{C},Nov{C},Dec{C}
 Site:GroundTemperature:Deep,  16.00,  16.00,  16.00,  16.00,  16.00,  16.00,  16.00,  16.00,  16.00,  16.00,  16.00,  16.00
! <Site:GroundReflectance>,Jan{dimensionless},Feb{dimensionless},Mar{dimensionless},Apr{dimensionless},May{dimensionless},Jun{dimensionless},Jul{dimensionless},Aug{dimensionless},Sep{dimensionless},Oct{dimensionless},Nov{dimensionless},Dec{dimensionless}
 Site:GroundReflectance,  0.20,  0.20,  0.20,  0.20,  0.20,  0.20,  0.20,  0.20,  0.20,  0.20,  0.20,  0.20
! <Site:GroundReflectance:SnowModifier>, Normal, Daylighting {dimensionless}
 Site:GroundReflectance:SnowModifier,   1.000,   1.000
! <Site:GroundReflectance:Snow>,Jan{dimensionless},Feb{dimensionless},Mar{dimensionless},Apr{dimensionless},May{dimensionless},Jun{dimensionless},Jul{dimensionless},Aug{dimensionless},Sep{dimensionless},Oct{dimensionless},Nov{dimensionless},Dec{dimensionless}
 Site:GroundReflectance:Snow,  0.20,  0.20,  0.20,  0.20,  0.20,  0.20,  0.20,  0.20,  0.20,  0.20,  0.20,  0.20
! <Site:GroundReflectance:Snow:Daylighting>,Jan{dimensionless},Feb{dimensionless},Mar{dimensionless},Apr{dimensionless},May{dimensionless},Jun{dimensionless},Jul{dimensionless},Aug{dimensionless},Sep{dimensionless},Oct{dimensionless},Nov{dimensionless},Dec{dimensionless}
 Site:GroundReflectance:Snow:Daylighting,  0.20,  0.20,  0.20,  0.20,  0.20,  0.20,  0.20,  0.20,  0.20,  0.20,  0.20,  0.20
! <Environment:Weather Station>,Wind Sensor Height Above Ground {m},Wind Speed Profile Exponent {},Wind Speed Profile Boundary Layer Thickness {m},Air Temperature Sensor Height Above Ground {m},Wind Speed Modifier Coefficient-Internal,Temperature Modifier Coefficient-Internal
Environment:Weather Station,10.000,0.140,270.000,1.500,1.586,9.750E-003
! <Site:Location>, Location Name, Latitude {N+/S- Deg}, Longitude {E+/W- Deg},  Time Zone Number {GMT+/-}, Elevation {m},  Standard Pressure at Elevation {Pa}, Standard RhoAir at Elevation
Site:Location,Montreal-Trudeau Intl AP QC CAN CWEC2016 WMO#=716270,45.47,-73.74,-5.00,36.00,100893,1.1992
! <Building Information>, Building Name,North Axis {deg},Terrain,  Loads Convergence Tolerance Value,Temperature Convergence Tolerance Value,  Solar Distribution,Maximum Number of Warmup Days,Minimum Number of Warmup Days
 Building Information,HighriseApartment-CAN_QC_Montreal-Trudeau.Intl.AP.716270_CWEC2016.epw created: 2019-08-08 00:19:51 +0000,0.000,City,4.00000E-002,0.20000,FullInteriorAndExterior,25,6
! <Inside Convection Algorithm>, Algorithm {Simple | TARP | CeilingDiffuser | AdaptiveConvectionAlgorithm}
Inside Convection Algorithm,TARP
! <Outside Convection Algorithm>, Algorithm {SimpleCombined | TARP | MoWitt | DOE-2 | AdaptiveConvectionAlgorithm}
Outside Convection Algorithm,TARP
! <Sky Radiance Distribution>, Value {Anisotropic}
Sky Radiance Distribution,Anisotropic
! <Zone Air Solution Algorithm>, Value {ThirdOrderBackwardDifference | AnalyticalSolution | EulerMethod}
 Zone Air Solution Algorithm, ThirdOrderBackwardDifference
! <Zone Air Carbon Dioxide Balance Simulation>, Simulation {Yes/No}, Carbon Dioxide Concentration
 Zone Air Carbon Dioxide Balance Simulation, No,N/A
! <Zone Air Generic Contaminant Balance Simulation>, Simulation {Yes/No}, Generic Contaminant Concentration
 Zone Air Generic Contaminant Balance Simulation, No,N/A
! <Zone Air Mass Flow Balance Simulation>, Enforce Mass Balance, Adjust Zone Mixing, Adjust Zone Infiltration {AddInfiltration | AdjustInfiltration | None}, Infiltration Zones {MixingSourceZonesOnly | AllZones}
 Zone Air Mass Flow Balance Simulation, No,N/A,N/A,N/A
! <HVACSystemRootFindingAlgorithm>, Value {RegulaFalsi | Bisection | BisectionThenRegulaFalsi | RegulaFalsiThenBisection}
 HVACSystemRootFindingAlgorithm, RegulaFalsi
! <Environment:Site Atmospheric Variation>,Wind Speed Profile Exponent {},Wind Speed Profile Boundary Layer Thickness {m},Air Temperature Gradient Coefficient {K/m}
Environment:Site Atmospheric Variation,0.330,460.000,6.500000E-003
! <Surface Geometry>,Starting Corner,Vertex Input Direction,Coordinate System,Daylight Reference Point Coordinate System,Rectangular (Simple) Surface Coordinate System
 Surface Geometry,UpperLeftCorner,Counterclockwise,RelativeCoordinateSystem,RelativeCoordinateSystem,RelativeToZoneOrigin
! <Surface Heat Transfer Algorithm>, Value {CTF - ConductionTransferFunction | EMPD - MoisturePenetrationDepthConductionTransferFunction | CondFD - ConductionFiniteDifference | HAMT - CombinedHeatAndMoistureFiniteElement} - Description,Inside Surface Max Temperature Limit{C}, Surface Convection Coefficient Lower Limit {W/m2-K}, Surface Convection Coefficient Upper Limit {W/m2-K}
Surface Heat Transfer Algorithm, CTF - ConductionTransferFunction,200,0.10,1000.0
! <Shading Summary>, Number of Fixed Detached Shades, Number of Building Detached Shades, Number of Attached Shades
 Shading Summary,0,0,80
! <Zone Summary>, Number of Zones, Number of Zone Surfaces, Number of SubSurfaces
 Zone Summary,90,740,140
! <Zone Information>,Zone Name,North Axis {deg},Origin X-Coordinate {m},Origin Y-Coordinate {m},Origin Z-Coordinate {m},Centroid X-Coordinate {m},Centroid Y-Coordinate {m},Centroid Z-Coordinate {m},Type,Zone Multiplier,Zone List Multiplier,Minimum X {m},Maximum X {m},Minimum Y {m},Maximum Y {m},Minimum Z {m},Maximum Z {m},Ceiling Height {m},Volume {m3},Zone Inside Convection Algorithm {Simple-Detailed-CeilingDiffuser-TrombeWall},Zone Outside Convection Algorithm {Simple-Detailed-Tarp-MoWitt-DOE-2-BLAST}, Floor Area {m2},Exterior Gross Wall Area {m2},Exterior Net Wall Area {m2},Exterior Window Area {m2}, Number of Surfaces, Number of SubSurfaces, Number of Shading SubSurfaces,  Part of Total Building Area
 Zone Information, ALL_ST=OFFICE ENCLOSED <= 25 M2_FL=BUILDING STORY 1_SCH=A,0.0,34.75,0.00,0.00,40.54,3.81,1.52,1,1,1,34.75,46.33,0.00,7.62,0.00,3.05,3.05,268.96,TARP,TARP,88.25,58.52,47.99,10.53,6,2,2,Yes
 Zone Information, DU_BT=SPACE FUNCTION_ST=DWELLING UNITS GENERAL_FL=BUILDING STORY 10_SCHG,0.0,11.58,0.00,27.43,17.37,3.81,28.95,1,1,1,11.58,23.16,0.00,7.62,27.43,30.48,3.05,268.96,TARP,TARP,88.25,35.30,28.95,6.35,6,1,2,Yes
 Zone Information, DU_BT=SPACE FUNCTION_ST=DWELLING UNITS GENERAL_FL=BUILDING STORY 10_SCHG 1,0.0,34.75,9.30,27.43,40.54,13.11,28.95,1,1,1,34.75,46.33,9.30,16.92,27.43,30.48,3.05,268.96,TARP,TARP,88.25,58.52,47.99,10.53,6,2,0,Yes
 Zone Information, DU_BT=SPACE FUNCTION_ST=DWELLING UNITS GENERAL_FL=BUILDING STORY 10_SCHG 2,0.0,23.16,9.30,27.43,28.95,13.11,28.95,1,1,1,23.16,34.75,9.30,16.92,27.43,30.48,3.05,268.97,TARP,TARP,88.25,35.30,28.95,6.35,6,1,0,Yes
 Zone Information, DU_BT=SPACE FUNCTION_ST=DWELLING UNITS GENERAL_FL=BUILDING STORY 10_SCHG 3,0.0,23.16,0.00,27.43,28.95,3.81,28.95,1,1,1,23.16,34.75,0.00,7.62,27.43,30.48,3.05,268.97,TARP,TARP,88.25,35.30,28.95,6.35,6,1,2,Yes
 Zone Information, DU_BT=SPACE FUNCTION_ST=DWELLING UNITS GENERAL_FL=BUILDING STORY 10_SCHG 4,0.0,0.00,9.30,27.43,5.79,13.11,28.95,1,1,1,0.00,11.58,9.30,16.92,27.43,30.48,3.05,268.96,TARP,TARP,88.25,58.52,47.99,10.53,6,2,0,Yes
 Zone Information, DU_BT=SPACE FUNCTION_ST=DWELLING UNITS GENERAL_FL=BUILDING STORY 10_SCHG 5,0.0,0.00,0.00,27.43,5.79,3.81,28.95,1,1,1,0.00,11.58,0.00,7.62,27.43,30.48,3.05,268.96,TARP,TARP,88.25,58.52,47.99,10.53,6,2,2,Yes
 Zone Information, DU_BT=SPACE FUNCTION_ST=DWELLING UNITS GENERAL_FL=BUILDING STORY 10_SCHG 6,0.0,11.58,9.30,27.43,17.37,13.11,28.95,1,1,1,11.58,23.16,9.30,16.92,27.43,30.48,3.05,268.96,TARP,TARP,88.25,35.30,28.95,6.35,6,1,0,Yes
 Zone Information, DU_BT=SPACE FUNCTION_ST=DWELLING UNITS GENERAL_FL=BUILDING STORY 10_SCHG 7,0.0,34.75,0.00,27.43,40.54,3.81,28.95,1,1,1,34.75,46.33,0.00,7.62,27.43,30.48,3.05,268.96,TARP,TARP,88.25,58.52,47.99,10.53,6,2,2,Yes
 Zone Information, DU_BT=SPACE FUNCTION_ST=DWELLING UNITS GENERAL_FL=BUILDING STORY 1_SCHG,0.0,34.75,9.30,0.00,40.54,13.11,1.52,1,1,1,34.75,46.33,9.30,16.92,0.00,3.05,3.05,268.96,TARP,TARP,88.25,58.52,47.99,10.53,6,2,0,Yes
 Zone Information, DU_BT=SPACE FUNCTION_ST=DWELLING UNITS GENERAL_FL=BUILDING STORY 1_SCHG 1,0.0,0.00,0.00,0.00,5.79,3.81,1.52,1,1,1,0.00,11.58,0.00,7.62,0.00,3.05,3.05,268.96,TARP,TARP,88.25,58.52,47.99,10.53,6,2,2,Yes
 Zone Information, DU_BT=SPACE FUNCTION_ST=DWELLING UNITS GENERAL_FL=BUILDING STORY 1_SCHG 2,0.0,11.58,9.30,0.00,17.37,13.11,1.52,1,1,1,11.58,23.16,9.30,16.92,0.00,3.05,3.05,268.96,TARP,TARP,88.25,35.30,28.95,6.35,6,1,0,Yes
 Zone Information, DU_BT=SPACE FUNCTION_ST=DWELLING UNITS GENERAL_FL=BUILDING STORY 1_SCHG 3,0.0,11.58,0.00,0.00,17.37,3.81,1.52,1,1,1,11.58,23.16,0.00,7.62,0.00,3.05,3.05,268.96,TARP,TARP,88.25,35.30,28.95,6.35,6,1,2,Yes
 Zone Information, DU_BT=SPACE FUNCTION_ST=DWELLING UNITS GENERAL_FL=BUILDING STORY 1_SCHG 4,0.0,0.00,9.30,0.00,5.79,13.11,1.52,1,1,1,0.00,11.58,9.30,16.92,0.00,3.05,3.05,268.96,TARP,TARP,88.25,58.52,47.99,10.53,6,2,0,Yes
 Zone Information, DU_BT=SPACE FUNCTION_ST=DWELLING UNITS GENERAL_FL=BUILDING STORY 1_SCHG 5,0.0,23.16,9.30,0.00,28.95,13.11,1.52,1,1,1,23.16,34.75,9.30,16.92,0.00,3.05,3.05,268.97,TARP,TARP,88.25,35.30,28.95,6.35,6,1,0,Yes
 Zone Information, DU_BT=SPACE FUNCTION_ST=DWELLING UNITS GENERAL_FL=BUILDING STORY 1_SCHG 6,0.0,23.16,0.00,0.00,28.95,3.81,1.52,1,1,1,23.16,34.75,0.00,7.62,0.00,3.05,3.05,268.97,TARP,TARP,88.25,35.30,28.95,6.35,6,1,2,Yes
 Zone Information, DU_BT=SPACE FUNCTION_ST=DWELLING UNITS GENERAL_FL=BUILDING STORY 2_SCHG,0.0,23.16,9.30,3.05,28.95,13.11,4.57,1,1,1,23.16,34.75,9.30,16.92,3.05,6.10,3.05,268.97,TARP,TARP,88.25,35.30,28.95,6.35,6,1,0,Yes
 Zone Information, DU_BT=SPACE FUNCTION_ST=DWELLING UNITS GENERAL_FL=BUILDING STORY 2_SCHG 1,0.0,23.16,0.00,3.05,28.95,3.81,4.57,1,1,1,23.16,34.75,0.00,7.62,3.05,6.10,3.05,268.97,TARP,TARP,88.25,35.30,28.95,6.35,6,1,2,Yes
 Zone Information, DU_BT=SPACE FUNCTION_ST=DWELLING UNITS GENERAL_FL=BUILDING STORY 2_SCHG 2,0.0,0.00,9.30,3.05,5.79,13.11,4.57,1,1,1,0.00,11.58,9.30,16.92,3.05,6.10,3.05,268.96,TARP,TARP,88.25,58.52,47.99,10.53,6,2,0,Yes
 Zone Information, DU_BT=SPACE FUNCTION_ST=DWELLING UNITS GENERAL_FL=BUILDING STORY 2_SCHG 3,0.0,11.58,0.00,3.05,17.37,3.81,4.57,1,1,1,11.58,23.16,0.00,7.62,3.05,6.10,3.05,268.96,TARP,TARP,88.25,35.30,28.95,6.35,6,1,2,Yes
 Zone Information, DU_BT=SPACE FUNCTION_ST=DWELLING UNITS GENERAL_FL=BUILDING STORY 2_SCHG 4,0.0,34.75,9.30,3.05,40.54,13.11,4.57,1,1,1,34.75,46.33,9.30,16.92,3.05,6.10,3.05,268.96,TARP,TARP,88.25,58.52,47.99,10.53,6,2,0,Yes
 Zone Information, DU_BT=SPACE FUNCTION_ST=DWELLING UNITS GENERAL_FL=BUILDING STORY 2_SCHG 5,0.0,11.58,9.30,3.05,17.37,13.11,4.57,1,1,1,11.58,23.16,9.30,16.92,3.05,6.10,3.05,268.96,TARP,TARP,88.25,35.30,28.95,6.35,6,1,0,Yes
 Zone Information, DU_BT=SPACE FUNCTION_ST=DWELLING UNITS GENERAL_FL=BUILDING STORY 2_SCHG 6,0.0,0.00,0.00,3.05,5.79,3.81,4.57,1,1,1,0.00,11.58,0.00,7.62,3.05,6.10,3.05,268.96,TARP,TARP,88.25,58.52,47.99,10.53,6,2,2,Yes
 Zone Information, DU_BT=SPACE FUNCTION_ST=DWELLING UNITS GENERAL_FL=BUILDING STORY 2_SCHG 7,0.0,34.75,0.00,3.05,40.54,3.81,4.57,1,1,1,34.75,46.33,0.00,7.62,3.05,6.10,3.05,268.96,TARP,TARP,88.25,58.52,47.99,10.53,6,2,2,Yes
 Zone Information, DU_BT=SPACE FUNCTION_ST=DWELLING UNITS GENERAL_FL=BUILDING STORY 3_SCHG,0.0,0.00,0.00,6.10,5.79,3.81,7.62,1,1,1,0.00,11.58,0.00,7.62,6.10,9.14,3.05,268.96,TARP,TARP,88.25,58.52,47.99,10.53,6,2,2,Yes
 Zone Information, DU_BT=SPACE FUNCTION_ST=DWELLING UNITS GENERAL_FL=BUILDING STORY 3_SCHG 1,0.0,23.16,0.00,6.10,28.95,3.81,7.62,1,1,1,23.16,34.75,0.00,7.62,6.10,9.14,3.05,268.97,TARP,TARP,88.25,35.30,28.95,6.35,6,1,2,Yes
 Zone Information, DU_BT=SPACE FUNCTION_ST=DWELLING UNITS GENERAL_FL=BUILDING STORY 3_SCHG 2,0.0,11.58,0.00,6.10,17.37,3.81,7.62,1,1,1,11.58,23.16,0.00,7.62,6.10,9.14,3.05,268.96,TARP,TARP,88.25,35.30,28.95,6.35,6,1,2,Yes
 Zone Information, DU_BT=SPACE FUNCTION_ST=DWELLING UNITS GENERAL_FL=BUILDING STORY 3_SCHG 3,0.0,34.75,0.00,6.10,40.54,3.81,7.62,1,1,1,34.75,46.33,0.00,7.62,6.10,9.14,3.05,268.96,TARP,TARP,88.25,58.52,47.99,10.53,6,2,2,Yes
 Zone Information, DU_BT=SPACE FUNCTION_ST=DWELLING UNITS GENERAL_FL=BUILDING STORY 3_SCHG 4,0.0,0.00,9.30,6.10,5.79,13.11,7.62,1,1,1,0.00,11.58,9.30,16.92,6.10,9.14,3.05,268.96,TARP,TARP,88.25,58.52,47.99,10.53,6,2,0,Yes
 Zone Information, DU_BT=SPACE FUNCTION_ST=DWELLING UNITS GENERAL_FL=BUILDING STORY 3_SCHG 5,0.0,34.75,9.30,6.10,40.54,13.11,7.62,1,1,1,34.75,46.33,9.30,16.92,6.10,9.14,3.05,268.96,TARP,TARP,88.25,58.52,47.99,10.53,6,2,0,Yes
 Zone Information, DU_BT=SPACE FUNCTION_ST=DWELLING UNITS GENERAL_FL=BUILDING STORY 3_SCHG 6,0.0,11.58,9.30,6.10,17.37,13.11,7.62,1,1,1,11.58,23.16,9.30,16.92,6.10,9.14,3.05,268.96,TARP,TARP,88.25,35.30,28.95,6.35,6,1,0,Yes
 Zone Information, DU_BT=SPACE FUNCTION_ST=DWELLING UNITS GENERAL_FL=BUILDING STORY 3_SCHG 7,0.0,23.16,9.30,6.10,28.95,13.11,7.62,1,1,1,23.16,34.75,9.30,16.92,6.10,9.14,3.05,268.97,TARP,TARP,88.25,35.30,28.95,6.35,6,1,0,Yes
 Zone Information, DU_BT=SPACE FUNCTION_ST=DWELLING UNITS GENERAL_FL=BUILDING STORY 4_SCHG,0.0,34.75,0.00,9.14,40.54,3.81,10.67,1,1,1,34.75,46.33,0.00,7.62,9.14,12.19,3.05,268.96,TARP,TARP,88.25,58.52,47.99,10.53,6,2,2,Yes
 Zone Information, DU_BT=SPACE FUNCTION_ST=DWELLING UNITS GENERAL_FL=BUILDING STORY 4_SCHG 1,0.0,34.75,9.30,9.14,40.54,13.11,10.67,1,1,1,34.75,46.33,9.30,16.92,9.14,12.19,3.05,268.96,TARP,TARP,88.25,58.52,47.99,10.53,6,2,0,Yes
 Zone Information, DU_BT=SPACE FUNCTION_ST=DWELLING UNITS GENERAL_FL=BUILDING STORY 4_SCHG 2,0.0,0.00,0.00,9.14,5.79,3.81,10.67,1,1,1,0.00,11.58,0.00,7.62,9.14,12.19,3.05,268.96,TARP,TARP,88.25,58.52,47.99,10.53,6,2,2,Yes
 Zone Information, DU_BT=SPACE FUNCTION_ST=DWELLING UNITS GENERAL_FL=BUILDING STORY 4_SCHG 3,0.0,23.16,0.00,9.14,28.95,3.81,10.67,1,1,1,23.16,34.75,0.00,7.62,9.14,12.19,3.05,268.97,TARP,TARP,88.25,35.30,28.95,6.35,6,1,2,Yes
 Zone Information, DU_BT=SPACE FUNCTION_ST=DWELLING UNITS GENERAL_FL=BUILDING STORY 4_SCHG 4,0.0,0.00,9.30,9.14,5.79,13.11,10.67,1,1,1,0.00,11.58,9.30,16.92,9.14,12.19,3.05,268.96,TARP,TARP,88.25,58.52,47.99,10.53,6,2,0,Yes
 Zone Information, DU_BT=SPACE FUNCTION_ST=DWELLING UNITS GENERAL_FL=BUILDING STORY 4_SCHG 5,0.0,11.58,9.30,9.14,17.37,13.11,10.67,1,1,1,11.58,23.16,9.30,16.92,9.14,12.19,3.05,268.96,TARP,TARP,88.25,35.30,28.95,6.35,6,1,0,Yes
 Zone Information, DU_BT=SPACE FUNCTION_ST=DWELLING UNITS GENERAL_FL=BUILDING STORY 4_SCHG 6,0.0,11.58,0.00,9.14,17.37,3.81,10.67,1,1,1,11.58,23.16,0.00,7.62,9.14,12.19,3.05,268.96,TARP,TARP,88.25,35.30,28.95,6.35,6,1,2,Yes
 Zone Information, DU_BT=SPACE FUNCTION_ST=DWELLING UNITS GENERAL_FL=BUILDING STORY 4_SCHG 7,0.0,23.16,9.30,9.14,28.95,13.11,10.67,1,1,1,23.16,34.75,9.30,16.92,9.14,12.19,3.05,268.97,TARP,TARP,88.25,35.30,28.95,6.35,6,1,0,Yes
 Zone Information, DU_BT=SPACE FUNCTION_ST=DWELLING UNITS GENERAL_FL=BUILDING STORY 5_SCHG,0.0,34.75,0.00,12.19,40.54,3.81,13.72,1,1,1,34.75,46.33,0.00,7.62,12.19,15.24,3.05,268.96,TARP,TARP,88.25,58.52,47.99,10.53,6,2,2,Yes
 Zone Information, DU_BT=SPACE FUNCTION_ST=DWELLING UNITS GENERAL_FL=BUILDING STORY 5_SCHG 1,0.0,11.58,9.30,12.19,17.37,13.11,13.72,1,1,1,11.58,23.16,9.30,16.92,12.19,15.24,3.05,268.96,TARP,TARP,88.25,35.30,28.95,6.35,6,1,0,Yes
 Zone Information, DU_BT=SPACE FUNCTION_ST=DWELLING UNITS GENERAL_FL=BUILDING STORY 5_SCHG 2,0.0,34.75,9.30,12.19,40.54,13.11,13.72,1,1,1,34.75,46.33,9.30,16.92,12.19,15.24,3.05,268.96,TARP,TARP,88.25,58.52,47.99,10.53,6,2,0,Yes
 Zone Information, DU_BT=SPACE FUNCTION_ST=DWELLING UNITS GENERAL_FL=BUILDING STORY 5_SCHG 3,0.0,23.16,9.30,12.19,28.95,13.11,13.72,1,1,1,23.16,34.75,9.30,16.92,12.19,15.24,3.05,268.97,TARP,TARP,88.25,35.30,28.95,6.35,6,1,0,Yes
 Zone Information, DU_BT=SPACE FUNCTION_ST=DWELLING UNITS GENERAL_FL=BUILDING STORY 5_SCHG 4,0.0,23.16,0.00,12.19,28.95,3.81,13.72,1,1,1,23.16,34.75,0.00,7.62,12.19,15.24,3.05,268.97,TARP,TARP,88.25,35.30,28.95,6.35,6,1,2,Yes
 Zone Information, DU_BT=SPACE FUNCTION_ST=DWELLING UNITS GENERAL_FL=BUILDING STORY 5_SCHG 5,0.0,11.58,0.00,12.19,17.37,3.81,13.72,1,1,1,11.58,23.16,0.00,7.62,12.19,15.24,3.05,268.96,TARP,TARP,88.25,35.30,28.95,6.35,6,1,2,Yes
 Zone Information, DU_BT=SPACE FUNCTION_ST=DWELLING UNITS GENERAL_FL=BUILDING STORY 5_SCHG 6,0.0,0.00,9.30,12.19,5.79,13.11,13.72,1,1,1,0.00,11.58,9.30,16.92,12.19,15.24,3.05,268.96,TARP,TARP,88.25,58.52,47.99,10.53,6,2,0,Yes
 Zone Information, DU_BT=SPACE FUNCTION_ST=DWELLING UNITS GENERAL_FL=BUILDING STORY 5_SCHG 7,0.0,0.00,0.00,12.19,5.79,3.81,13.72,1,1,1,0.00,11.58,0.00,7.62,12.19,15.24,3.05,268.96,TARP,TARP,88.25,58.52,47.99,10.53,6,2,2,Yes
 Zone Information, DU_BT=SPACE FUNCTION_ST=DWELLING UNITS GENERAL_FL=BUILDING STORY 6_SCHG,0.0,0.00,9.30,15.24,5.79,13.11,16.76,1,1,1,0.00,11.58,9.30,16.92,15.24,18.29,3.05,268.96,TARP,TARP,88.25,58.52,47.99,10.53,6,2,0,Yes
 Zone Information, DU_BT=SPACE FUNCTION_ST=DWELLING UNITS GENERAL_FL=BUILDING STORY 6_SCHG 1,0.0,23.16,9.30,15.24,28.95,13.11,16.76,1,1,1,23.16,34.75,9.30,16.92,15.24,18.29,3.05,268.97,TARP,TARP,88.25,35.30,28.95,6.35,6,1,0,Yes
 Zone Information, DU_BT=SPACE FUNCTION_ST=DWELLING UNITS GENERAL_FL=BUILDING STORY 6_SCHG 2,0.0,34.75,9.30,15.24,40.54,13.11,16.76,1,1,1,34.75,46.33,9.30,16.92,15.24,18.29,3.05,268.96,TARP,TARP,88.25,58.52,47.99,10.53,6,2,0,Yes
 Zone Information, DU_BT=SPACE FUNCTION_ST=DWELLING UNITS GENERAL_FL=BUILDING STORY 6_SCHG 3,0.0,11.58,9.30,15.24,17.37,13.11,16.76,1,1,1,11.58,23.16,9.30,16.92,15.24,18.29,3.05,268.96,TARP,TARP,88.25,35.30,28.95,6.35,6,1,0,Yes
 Zone Information, DU_BT=SPACE FUNCTION_ST=DWELLING UNITS GENERAL_FL=BUILDING STORY 6_SCHG 4,0.0,34.75,0.00,15.24,40.54,3.81,16.76,1,1,1,34.75,46.33,0.00,7.62,15.24,18.29,3.05,268.96,TARP,TARP,88.25,58.52,47.99,10.53,6,2,2,Yes
 Zone Information, DU_BT=SPACE FUNCTION_ST=DWELLING UNITS GENERAL_FL=BUILDING STORY 6_SCHG 5,0.0,0.00,0.00,15.24,5.79,3.81,16.76,1,1,1,0.00,11.58,0.00,7.62,15.24,18.29,3.05,268.96,TARP,TARP,88.25,58.52,47.99,10.53,6,2,2,Yes
 Zone Information, DU_BT=SPACE FUNCTION_ST=DWELLING UNITS GENERAL_FL=BUILDING STORY 6_SCHG 6,0.0,11.58,0.00,15.24,17.37,3.81,16.76,1,1,1,11.58,23.16,0.00,7.62,15.24,18.29,3.05,268.96,TARP,TARP,88.25,35.30,28.95,6.35,6,1,2,Yes
 Zone Information, DU_BT=SPACE FUNCTION_ST=DWELLING UNITS GENERAL_FL=BUILDING STORY 6_SCHG 7,0.0,23.16,0.00,15.24,28.95,3.81,16.76,1,1,1,23.16,34.75,0.00,7.62,15.24,18.29,3.05,268.97,TARP,TARP,88.25,35.30,28.95,6.35,6,1,2,Yes
 Zone Information, DU_BT=SPACE FUNCTION_ST=DWELLING UNITS GENERAL_FL=BUILDING STORY 7_SCHG,0.0,23.16,9.30,18.29,28.95,13.11,19.81,1,1,1,23.16,34.75,9.30,16.92,18.29,21.33,3.05,268.97,TARP,TARP,88.25,35.30,28.95,6.35,6,1,0,Yes
 Zone Information, DU_BT=SPACE FUNCTION_ST=DWELLING UNITS GENERAL_FL=BUILDING STORY 7_SCHG 1,0.0,0.00,9.30,18.29,5.79,13.11,19.81,1,1,1,0.00,11.58,9.30,16.92,18.29,21.33,3.05,268.96,TARP,TARP,88.25,58.52,47.99,10.53,6,2,0,Yes
 Zone Information, DU_BT=SPACE FUNCTION_ST=DWELLING UNITS GENERAL_FL=BUILDING STORY 7_SCHG 2,0.0,11.58,0.00,18.29,17.37,3.81,19.81,1,1,1,11.58,23.16,0.00,7.62,18.29,21.33,3.05,268.96,TARP,TARP,88.25,35.30,28.95,6.35,6,1,2,Yes
 Zone Information, DU_BT=SPACE FUNCTION_ST=DWELLING UNITS GENERAL_FL=BUILDING STORY 7_SCHG 3,0.0,34.75,9.30,18.29,40.54,13.11,19.81,1,1,1,34.75,46.33,9.30,16.92,18.29,21.33,3.05,268.96,TARP,TARP,88.25,58.52,47.99,10.53,6,2,0,Yes
 Zone Information, DU_BT=SPACE FUNCTION_ST=DWELLING UNITS GENERAL_FL=BUILDING STORY 7_SCHG 4,0.0,0.00,0.00,18.29,5.79,3.81,19.81,1,1,1,0.00,11.58,0.00,7.62,18.29,21.33,3.05,268.96,TARP,TARP,88.25,58.52,47.99,10.53,6,2,2,Yes
 Zone Information, DU_BT=SPACE FUNCTION_ST=DWELLING UNITS GENERAL_FL=BUILDING STORY 7_SCHG 5,0.0,34.75,0.00,18.29,40.54,3.81,19.81,1,1,1,34.75,46.33,0.00,7.62,18.29,21.33,3.05,268.96,TARP,TARP,88.25,58.52,47.99,10.53,6,2,2,Yes
 Zone Information, DU_BT=SPACE FUNCTION_ST=DWELLING UNITS GENERAL_FL=BUILDING STORY 7_SCHG 6,0.0,11.58,9.30,18.29,17.37,13.11,19.81,1,1,1,11.58,23.16,9.30,16.92,18.29,21.33,3.05,268.96,TARP,TARP,88.25,35.30,28.95,6.35,6,1,0,Yes
 Zone Information, DU_BT=SPACE FUNCTION_ST=DWELLING UNITS GENERAL_FL=BUILDING STORY 7_SCHG 7,0.0,23.16,0.00,18.29,28.95,3.81,19.81,1,1,1,23.16,34.75,0.00,7.62,18.29,21.33,3.05,268.97,TARP,TARP,88.25,35.30,28.95,6.35,6,1,2,Yes
 Zone Information, DU_BT=SPACE FUNCTION_ST=DWELLING UNITS GENERAL_FL=BUILDING STORY 8_SCHG,0.0,23.16,0.00,21.33,28.95,3.81,22.86,1,1,1,23.16,34.75,0.00,7.62,21.33,24.38,3.05,268.97,TARP,TARP,88.25,35.30,28.95,6.35,6,1,2,Yes
 Zone Information, DU_BT=SPACE FUNCTION_ST=DWELLING UNITS GENERAL_FL=BUILDING STORY 8_SCHG 1,0.0,0.00,9.30,21.33,5.79,13.11,22.86,1,1,1,0.00,11.58,9.30,16.92,21.33,24.38,3.05,268.96,TARP,TARP,88.25,58.52,47.99,10.53,6,2,0,Yes
 Zone Information, DU_BT=SPACE FUNCTION_ST=DWELLING UNITS GENERAL_FL=BUILDING STORY 8_SCHG 2,0.0,11.58,0.00,21.33,17.37,3.81,22.86,1,1,1,11.58,23.16,0.00,7.62,21.33,24.38,3.05,268.96,TARP,TARP,88.25,35.30,28.95,6.35,6,1,2,Yes
 Zone Information, DU_BT=SPACE FUNCTION_ST=DWELLING UNITS GENERAL_FL=BUILDING STORY 8_SCHG 3,0.0,11.58,9.30,21.33,17.37,13.11,22.86,1,1,1,11.58,23.16,9.30,16.92,21.33,24.38,3.05,268.96,TARP,TARP,88.25,35.30,28.95,6.35,6,1,0,Yes
 Zone Information, DU_BT=SPACE FUNCTION_ST=DWELLING UNITS GENERAL_FL=BUILDING STORY 8_SCHG 4,0.0,34.75,9.30,21.33,40.54,13.11,22.86,1,1,1,34.75,46.33,9.30,16.92,21.33,24.38,3.05,268.96,TARP,TARP,88.25,58.52,47.99,10.53,6,2,0,Yes
 Zone Information, DU_BT=SPACE FUNCTION_ST=DWELLING UNITS GENERAL_FL=BUILDING STORY 8_SCHG 5,0.0,34.75,0.00,21.33,40.54,3.81,22.86,1,1,1,34.75,46.33,0.00,7.62,21.33,24.38,3.05,268.96,TARP,TARP,88.25,58.52,47.99,10.53,6,2,2,Yes
 Zone Information, DU_BT=SPACE FUNCTION_ST=DWELLING UNITS GENERAL_FL=BUILDING STORY 8_SCHG 6,0.0,0.00,0.00,21.33,5.79,3.81,22.86,1,1,1,0.00,11.58,0.00,7.62,21.33,24.38,3.05,268.96,TARP,TARP,88.25,58.52,47.99,10.53,6,2,2,Yes
 Zone Information, DU_BT=SPACE FUNCTION_ST=DWELLING UNITS GENERAL_FL=BUILDING STORY 8_SCHG 7,0.0,23.16,9.30,21.33,28.95,13.11,22.86,1,1,1,23.16,34.75,9.30,16.92,21.33,24.38,3.05,268.97,TARP,TARP,88.25,35.30,28.95,6.35,6,1,0,Yes
 Zone Information, DU_BT=SPACE FUNCTION_ST=DWELLING UNITS GENERAL_FL=BUILDING STORY 9_SCHG,0.0,23.16,9.30,24.38,28.95,13.11,25.91,1,1,1,23.16,34.75,9.30,16.92,24.38,27.43,3.05,268.97,TARP,TARP,88.25,35.30,28.95,6.35,6,1,0,Yes
 Zone Information, DU_BT=SPACE FUNCTION_ST=DWELLING UNITS GENERAL_FL=BUILDING STORY 9_SCHG 1,0.0,34.75,9.30,24.38,40.54,13.11,25.91,1,1,1,34.75,46.33,9.30,16.92,24.38,27.43,3.05,268.96,TARP,TARP,88.25,58.52,47.99,10.53,6,2,0,Yes
 Zone Information, DU_BT=SPACE FUNCTION_ST=DWELLING UNITS GENERAL_FL=BUILDING STORY 9_SCHG 2,0.0,23.16,0.00,24.38,28.95,3.81,25.91,1,1,1,23.16,34.75,0.00,7.62,24.38,27.43,3.05,268.97,TARP,TARP,88.25,35.30,28.95,6.35,6,1,2,Yes
 Zone Information, DU_BT=SPACE FUNCTION_ST=DWELLING UNITS GENERAL_FL=BUILDING STORY 9_SCHG 3,0.0,0.00,0.00,24.38,5.79,3.81,25.91,1,1,1,0.00,11.58,0.00,7.62,24.38,27.43,3.05,268.96,TARP,TARP,88.25,58.52,47.99,10.53,6,2,2,Yes
 Zone Information, DU_BT=SPACE FUNCTION_ST=DWELLING UNITS GENERAL_FL=BUILDING STORY 9_SCHG 4,0.0,0.00,9.30,24.38,5.79,13.11,25.91,1,1,1,0.00,11.58,9.30,16.92,24.38,27.43,3.05,268.96,TARP,TARP,88.25,58.52,47.99,10.53,6,2,0,Yes
 Zone Information, DU_BT=SPACE FUNCTION_ST=DWELLING UNITS GENERAL_FL=BUILDING STORY 9_SCHG 5,0.0,11.58,0.00,24.38,17.37,3.81,25.91,1,1,1,11.58,23.16,0.00,7.62,24.38,27.43,3.05,268.96,TARP,TARP,88.25,35.30,28.95,6.35,6,1,2,Yes
 Zone Information, DU_BT=SPACE FUNCTION_ST=DWELLING UNITS GENERAL_FL=BUILDING STORY 9_SCHG 6,0.0,11.58,9.30,24.38,17.37,13.11,25.91,1,1,1,11.58,23.16,9.30,16.92,24.38,27.43,3.05,268.96,TARP,TARP,88.25,35.30,28.95,6.35,6,1,0,Yes
 Zone Information, DU_BT=SPACE FUNCTION_ST=DWELLING UNITS GENERAL_FL=BUILDING STORY 9_SCHG 7,0.0,34.75,0.00,24.38,40.54,3.81,25.91,1,1,1,34.75,46.33,0.00,7.62,24.38,27.43,3.05,268.96,TARP,TARP,88.25,58.52,47.99,10.53,6,2,2,Yes
 Zone Information, WILD_ST=CORRIDOR/TRANSITION AREA OTHER-SCH-G_FL=BUILDING STORY 10_SCH=G,0.0,0.00,7.62,27.43,23.16,8.46,28.95,1,1,1,0.00,46.33,7.62,9.30,27.43,30.48,3.05,236.69,TARP,TARP,77.66,10.22,8.38,1.84,12,2,0,Yes
 Zone Information, WILD_ST=CORRIDOR/TRANSITION AREA OTHER-SCH-G_FL=BUILDING STORY 1_SCH=G,0.0,0.00,7.62,0.00,23.16,8.46,1.52,1,1,1,0.00,46.33,7.62,9.30,0.00,3.05,3.05,236.69,TARP,TARP,77.66,10.22,8.38,1.84,12,2,0,Yes
 Zone Information, WILD_ST=CORRIDOR/TRANSITION AREA OTHER-SCH-G_FL=BUILDING STORY 2_SCH=G,0.0,0.00,7.62,3.05,23.16,8.46,4.57,1,1,1,0.00,46.33,7.62,9.30,3.05,6.10,3.05,236.69,TARP,TARP,77.66,10.22,8.38,1.84,12,2,0,Yes
 Zone Information, WILD_ST=CORRIDOR/TRANSITION AREA OTHER-SCH-G_FL=BUILDING STORY 3_SCH=G,0.0,0.00,7.62,6.10,23.16,8.46,7.62,1,1,1,0.00,46.33,7.62,9.30,6.10,9.14,3.05,236.69,TARP,TARP,77.66,10.22,8.38,1.84,12,2,0,Yes
 Zone Information, WILD_ST=CORRIDOR/TRANSITION AREA OTHER-SCH-G_FL=BUILDING STORY 4_SCH=G,0.0,0.00,7.62,9.14,23.16,8.46,10.67,1,1,1,0.00,46.33,7.62,9.30,9.14,12.19,3.05,236.69,TARP,TARP,77.66,10.22,8.38,1.84,12,2,0,Yes
 Zone Information, WILD_ST=CORRIDOR/TRANSITION AREA OTHER-SCH-G_FL=BUILDING STORY 5_SCH=G,0.0,0.00,7.62,12.19,23.16,8.46,13.72,1,1,1,0.00,46.33,7.62,9.30,12.19,15.24,3.05,236.69,TARP,TARP,77.66,10.22,8.38,1.84,12,2,0,Yes
 Zone Information, WILD_ST=CORRIDOR/TRANSITION AREA OTHER-SCH-G_FL=BUILDING STORY 6_SCH=G,0.0,0.00,7.62,15.24,23.16,8.46,16.76,1,1,1,0.00,46.33,7.62,9.30,15.24,18.29,3.05,236.69,TARP,TARP,77.66,10.22,8.38,1.84,12,2,0,Yes
 Zone Information, WILD_ST=CORRIDOR/TRANSITION AREA OTHER-SCH-G_FL=BUILDING STORY 7_SCH=G,0.0,0.00,7.62,18.29,23.16,8.46,19.81,1,1,1,0.00,46.33,7.62,9.30,18.29,21.33,3.05,236.69,TARP,TARP,77.66,10.22,8.38,1.84,12,2,0,Yes
 Zone Information, WILD_ST=CORRIDOR/TRANSITION AREA OTHER-SCH-G_FL=BUILDING STORY 8_SCH=G,0.0,0.00,7.62,21.33,23.16,8.46,22.86,1,1,1,0.00,46.33,7.62,9.30,21.33,24.38,3.05,236.69,TARP,TARP,77.66,10.22,8.38,1.84,12,2,0,Yes
 Zone Information, WILD_ST=CORRIDOR/TRANSITION AREA OTHER-SCH-G_FL=BUILDING STORY 9_SCH=G,0.0,0.00,7.62,24.38,23.16,8.46,25.91,1,1,1,0.00,46.33,7.62,9.30,24.38,27.43,3.05,236.69,TARP,TARP,77.66,10.22,8.38,1.84,12,2,0,Yes
! <Zone Internal Gains Nominal>,Zone Name, Floor Area {m2},# Occupants,Area per Occupant {m2/person},Occupant per Area {person/m2},Interior Lighting {W/m2},Electric Load {W/m2},Gas Load {W/m2},Other Load {W/m2},Hot Water Eq {W/m2},Steam Equipment {W/m2},Sum Loads per Area {W/m2},Outdoor Controlled Baseboard Heat
 Zone Internal Gains Nominal, ALL_ST=OFFICE ENCLOSED <= 25 M2_FL=BUILDING STORY 1_SCH=A,88.25,4.4,19.993,5.002E-002,3.600,3.751,0.000,0.000,0.000,0.000,7.351,No
 Zone Internal Gains Nominal, DU_BT=SPACE FUNCTION_ST=DWELLING UNITS GENERAL_FL=BUILDING STORY 10_SCHG,88.25,3.5,24.991,4.001E-002,2.000,2.501,0.000,0.000,0.000,0.000,4.501,No
 Zone Internal Gains Nominal, DU_BT=SPACE FUNCTION_ST=DWELLING UNITS GENERAL_FL=BUILDING STORY 10_SCHG 1,88.25,3.5,24.991,4.001E-002,2.000,2.501,0.000,0.000,0.000,0.000,4.501,No
 Zone Internal Gains Nominal, DU_BT=SPACE FUNCTION_ST=DWELLING UNITS GENERAL_FL=BUILDING STORY 10_SCHG 2,88.25,3.5,24.991,4.001E-002,2.000,2.501,0.000,0.000,0.000,0.000,4.501,No
 Zone Internal Gains Nominal, DU_BT=SPACE FUNCTION_ST=DWELLING UNITS GENERAL_FL=BUILDING STORY 10_SCHG 3,88.25,3.5,24.991,4.001E-002,2.000,2.501,0.000,0.000,0.000,0.000,4.501,No
 Zone Internal Gains Nominal, DU_BT=SPACE FUNCTION_ST=DWELLING UNITS GENERAL_FL=BUILDING STORY 10_SCHG 4,88.25,3.5,24.991,4.001E-002,2.000,2.501,0.000,0.000,0.000,0.000,4.501,No
 Zone Internal Gains Nominal, DU_BT=SPACE FUNCTION_ST=DWELLING UNITS GENERAL_FL=BUILDING STORY 10_SCHG 5,88.25,3.5,24.991,4.001E-002,2.000,2.501,0.000,0.000,0.000,0.000,4.501,No
 Zone Internal Gains Nominal, DU_BT=SPACE FUNCTION_ST=DWELLING UNITS GENERAL_FL=BUILDING STORY 10_SCHG 6,88.25,3.5,24.991,4.001E-002,2.000,2.501,0.000,0.000,0.000,0.000,4.501,No
 Zone Internal Gains Nominal, DU_BT=SPACE FUNCTION_ST=DWELLING UNITS GENERAL_FL=BUILDING STORY 10_SCHG 7,88.25,3.5,24.991,4.001E-002,2.000,2.501,0.000,0.000,0.000,0.000,4.501,No
 Zone Internal Gains Nominal, DU_BT=SPACE FUNCTION_ST=DWELLING UNITS GENERAL_FL=BUILDING STORY 1_SCHG,88.25,3.5,24.991,4.001E-002,2.000,2.501,0.000,0.000,0.000,0.000,4.501,No
 Zone Internal Gains Nominal, DU_BT=SPACE FUNCTION_ST=DWELLING UNITS GENERAL_FL=BUILDING STORY 1_SCHG 1,88.25,3.5,24.991,4.001E-002,2.000,2.501,0.000,0.000,0.000,0.000,4.501,No
 Zone Internal Gains Nominal, DU_BT=SPACE FUNCTION_ST=DWELLING UNITS GENERAL_FL=BUILDING STORY 1_SCHG 2,88.25,3.5,24.991,4.001E-002,2.000,2.501,0.000,0.000,0.000,0.000,4.501,No
 Zone Internal Gains Nominal, DU_BT=SPACE FUNCTION_ST=DWELLING UNITS GENERAL_FL=BUILDING STORY 1_SCHG 3,88.25,3.5,24.991,4.001E-002,2.000,2.501,0.000,0.000,0.000,0.000,4.501,No
 Zone Internal Gains Nominal, DU_BT=SPACE FUNCTION_ST=DWELLING UNITS GENERAL_FL=BUILDING STORY 1_SCHG 4,88.25,3.5,24.991,4.001E-002,2.000,2.501,0.000,0.000,0.000,0.000,4.501,No
 Zone Internal Gains Nominal, DU_BT=SPACE FUNCTION_ST=DWELLING UNITS GENERAL_FL=BUILDING STORY 1_SCHG 5,88.25,3.5,24.991,4.001E-002,2.000,2.501,0.000,0.000,0.000,0.000,4.501,No
 Zone Internal Gains Nominal, DU_BT=SPACE FUNCTION_ST=DWELLING UNITS GENERAL_FL=BUILDING STORY 1_SCHG 6,88.25,3.5,24.991,4.001E-002,2.000,2.501,0.000,0.000,0.000,0.000,4.501,No
 Zone Internal Gains Nominal, DU_BT=SPACE FUNCTION_ST=DWELLING UNITS GENERAL_FL=BUILDING STORY 2_SCHG,88.25,3.5,24.991,4.001E-002,2.000,2.501,0.000,0.000,0.000,0.000,4.501,No
 Zone Internal Gains Nominal, DU_BT=SPACE FUNCTION_ST=DWELLING UNITS GENERAL_FL=BUILDING STORY 2_SCHG 1,88.25,3.5,24.991,4.001E-002,2.000,2.501,0.000,0.000,0.000,0.000,4.501,No
 Zone Internal Gains Nominal, DU_BT=SPACE FUNCTION_ST=DWELLING UNITS GENERAL_FL=BUILDING STORY 2_SCHG 2,88.25,3.5,24.991,4.001E-002,2.000,2.501,0.000,0.000,0.000,0.000,4.501,No
 Zone Internal Gains Nominal, DU_BT=SPACE FUNCTION_ST=DWELLING UNITS GENERAL_FL=BUILDING STORY 2_SCHG 3,88.25,3.5,24.991,4.001E-002,2.000,2.501,0.000,0.000,0.000,0.000,4.501,No
 Zone Internal Gains Nominal, DU_BT=SPACE FUNCTION_ST=DWELLING UNITS GENERAL_FL=BUILDING STORY 2_SCHG 4,88.25,3.5,24.991,4.001E-002,2.000,2.501,0.000,0.000,0.000,0.000,4.501,No
 Zone Internal Gains Nominal, DU_BT=SPACE FUNCTION_ST=DWELLING UNITS GENERAL_FL=BUILDING STORY 2_SCHG 5,88.25,3.5,24.991,4.001E-002,2.000,2.501,0.000,0.000,0.000,0.000,4.501,No
 Zone Internal Gains Nominal, DU_BT=SPACE FUNCTION_ST=DWELLING UNITS GENERAL_FL=BUILDING STORY 2_SCHG 6,88.25,3.5,24.991,4.001E-002,2.000,2.501,0.000,0.000,0.000,0.000,4.501,No
 Zone Internal Gains Nominal, DU_BT=SPACE FUNCTION_ST=DWELLING UNITS GENERAL_FL=BUILDING STORY 2_SCHG 7,88.25,3.5,24.991,4.001E-002,2.000,2.501,0.000,0.000,0.000,0.000,4.501,No
 Zone Internal Gains Nominal, DU_BT=SPACE FUNCTION_ST=DWELLING UNITS GENERAL_FL=BUILDING STORY 3_SCHG,88.25,3.5,24.991,4.001E-002,2.000,2.501,0.000,0.000,0.000,0.000,4.501,No
 Zone Internal Gains Nominal, DU_BT=SPACE FUNCTION_ST=DWELLING UNITS GENERAL_FL=BUILDING STORY 3_SCHG 1,88.25,3.5,24.991,4.001E-002,2.000,2.501,0.000,0.000,0.000,0.000,4.501,No
 Zone Internal Gains Nominal, DU_BT=SPACE FUNCTION_ST=DWELLING UNITS GENERAL_FL=BUILDING STORY 3_SCHG 2,88.25,3.5,24.991,4.001E-002,2.000,2.501,0.000,0.000,0.000,0.000,4.501,No
 Zone Internal Gains Nominal, DU_BT=SPACE FUNCTION_ST=DWELLING UNITS GENERAL_FL=BUILDING STORY 3_SCHG 3,88.25,3.5,24.991,4.001E-002,2.000,2.501,0.000,0.000,0.000,0.000,4.501,No
 Zone Internal Gains Nominal, DU_BT=SPACE FUNCTION_ST=DWELLING UNITS GENERAL_FL=BUILDING STORY 3_SCHG 4,88.25,3.5,24.991,4.001E-002,2.000,2.501,0.000,0.000,0.000,0.000,4.501,No
 Zone Internal Gains Nominal, DU_BT=SPACE FUNCTION_ST=DWELLING UNITS GENERAL_FL=BUILDING STORY 3_SCHG 5,88.25,3.5,24.991,4.001E-002,2.000,2.501,0.000,0.000,0.000,0.000,4.501,No
 Zone Internal Gains Nominal, DU_BT=SPACE FUNCTION_ST=DWELLING UNITS GENERAL_FL=BUILDING STORY 3_SCHG 6,88.25,3.5,24.991,4.001E-002,2.000,2.501,0.000,0.000,0.000,0.000,4.501,No
 Zone Internal Gains Nominal, DU_BT=SPACE FUNCTION_ST=DWELLING UNITS GENERAL_FL=BUILDING STORY 3_SCHG 7,88.25,3.5,24.991,4.001E-002,2.000,2.501,0.000,0.000,0.000,0.000,4.501,No
 Zone Internal Gains Nominal, DU_BT=SPACE FUNCTION_ST=DWELLING UNITS GENERAL_FL=BUILDING STORY 4_SCHG,88.25,3.5,24.991,4.001E-002,2.000,2.501,0.000,0.000,0.000,0.000,4.501,No
 Zone Internal Gains Nominal, DU_BT=SPACE FUNCTION_ST=DWELLING UNITS GENERAL_FL=BUILDING STORY 4_SCHG 1,88.25,3.5,24.991,4.001E-002,2.000,2.501,0.000,0.000,0.000,0.000,4.501,No
 Zone Internal Gains Nominal, DU_BT=SPACE FUNCTION_ST=DWELLING UNITS GENERAL_FL=BUILDING STORY 4_SCHG 2,88.25,3.5,24.991,4.001E-002,2.000,2.501,0.000,0.000,0.000,0.000,4.501,No
 Zone Internal Gains Nominal, DU_BT=SPACE FUNCTION_ST=DWELLING UNITS GENERAL_FL=BUILDING STORY 4_SCHG 3,88.25,3.5,24.991,4.001E-002,2.000,2.501,0.000,0.000,0.000,0.000,4.501,No
 Zone Internal Gains Nominal, DU_BT=SPACE FUNCTION_ST=DWELLING UNITS GENERAL_FL=BUILDING STORY 4_SCHG 4,88.25,3.5,24.991,4.001E-002,2.000,2.501,0.000,0.000,0.000,0.000,4.501,No
 Zone Internal Gains Nominal, DU_BT=SPACE FUNCTION_ST=DWELLING UNITS GENERAL_FL=BUILDING STORY 4_SCHG 5,88.25,3.5,24.991,4.001E-002,2.000,2.501,0.000,0.000,0.000,0.000,4.501,No
 Zone Internal Gains Nominal, DU_BT=SPACE FUNCTION_ST=DWELLING UNITS GENERAL_FL=BUILDING STORY 4_SCHG 6,88.25,3.5,24.991,4.001E-002,2.000,2.501,0.000,0.000,0.000,0.000,4.501,No
 Zone Internal Gains Nominal, DU_BT=SPACE FUNCTION_ST=DWELLING UNITS GENERAL_FL=BUILDING STORY 4_SCHG 7,88.25,3.5,24.991,4.001E-002,2.000,2.501,0.000,0.000,0.000,0.000,4.501,No
 Zone Internal Gains Nominal, DU_BT=SPACE FUNCTION_ST=DWELLING UNITS GENERAL_FL=BUILDING STORY 5_SCHG,88.25,3.5,24.991,4.001E-002,2.000,2.501,0.000,0.000,0.000,0.000,4.501,No
 Zone Internal Gains Nominal, DU_BT=SPACE FUNCTION_ST=DWELLING UNITS GENERAL_FL=BUILDING STORY 5_SCHG 1,88.25,3.5,24.991,4.001E-002,2.000,2.501,0.000,0.000,0.000,0.000,4.501,No
 Zone Internal Gains Nominal, DU_BT=SPACE FUNCTION_ST=DWELLING UNITS GENERAL_FL=BUILDING STORY 5_SCHG 2,88.25,3.5,24.991,4.001E-002,2.000,2.501,0.000,0.000,0.000,0.000,4.501,No
 Zone Internal Gains Nominal, DU_BT=SPACE FUNCTION_ST=DWELLING UNITS GENERAL_FL=BUILDING STORY 5_SCHG 3,88.25,3.5,24.991,4.001E-002,2.000,2.501,0.000,0.000,0.000,0.000,4.501,No
 Zone Internal Gains Nominal, DU_BT=SPACE FUNCTION_ST=DWELLING UNITS GENERAL_FL=BUILDING STORY 5_SCHG 4,88.25,3.5,24.991,4.001E-002,2.000,2.501,0.000,0.000,0.000,0.000,4.501,No
 Zone Internal Gains Nominal, DU_BT=SPACE FUNCTION_ST=DWELLING UNITS GENERAL_FL=BUILDING STORY 5_SCHG 5,88.25,3.5,24.991,4.001E-002,2.000,2.501,0.000,0.000,0.000,0.000,4.501,No
 Zone Internal Gains Nominal, DU_BT=SPACE FUNCTION_ST=DWELLING UNITS GENERAL_FL=BUILDING STORY 5_SCHG 6,88.25,3.5,24.991,4.001E-002,2.000,2.501,0.000,0.000,0.000,0.000,4.501,No
 Zone Internal Gains Nominal, DU_BT=SPACE FUNCTION_ST=DWELLING UNITS GENERAL_FL=BUILDING STORY 5_SCHG 7,88.25,3.5,24.991,4.001E-002,2.000,2.501,0.000,0.000,0.000,0.000,4.501,No
 Zone Internal Gains Nominal, DU_BT=SPACE FUNCTION_ST=DWELLING UNITS GENERAL_FL=BUILDING STORY 6_SCHG,88.25,3.5,24.991,4.001E-002,2.000,2.501,0.000,0.000,0.000,0.000,4.501,No
 Zone Internal Gains Nominal, DU_BT=SPACE FUNCTION_ST=DWELLING UNITS GENERAL_FL=BUILDING STORY 6_SCHG 1,88.25,3.5,24.991,4.001E-002,2.000,2.501,0.000,0.000,0.000,0.000,4.501,No
 Zone Internal Gains Nominal, DU_BT=SPACE FUNCTION_ST=DWELLING UNITS GENERAL_FL=BUILDING STORY 6_SCHG 2,88.25,3.5,24.991,4.001E-002,2.000,2.501,0.000,0.000,0.000,0.000,4.501,No
 Zone Internal Gains Nominal, DU_BT=SPACE FUNCTION_ST=DWELLING UNITS GENERAL_FL=BUILDING STORY 6_SCHG 3,88.25,3.5,24.991,4.001E-002,2.000,2.501,0.000,0.000,0.000,0.000,4.501,No
 Zone Internal Gains Nominal, DU_BT=SPACE FUNCTION_ST=DWELLING UNITS GENERAL_FL=BUILDING STORY 6_SCHG 4,88.25,3.5,24.991,4.001E-002,2.000,2.501,0.000,0.000,0.000,0.000,4.501,No
 Zone Internal Gains Nominal, DU_BT=SPACE FUNCTION_ST=DWELLING UNITS GENERAL_FL=BUILDING STORY 6_SCHG 5,88.25,3.5,24.991,4.001E-002,2.000,2.501,0.000,0.000,0.000,0.000,4.501,No
 Zone Internal Gains Nominal, DU_BT=SPACE FUNCTION_ST=DWELLING UNITS GENERAL_FL=BUILDING STORY 6_SCHG 6,88.25,3.5,24.991,4.001E-002,2.000,2.501,0.000,0.000,0.000,0.000,4.501,No
 Zone Internal Gains Nominal, DU_BT=SPACE FUNCTION_ST=DWELLING UNITS GENERAL_FL=BUILDING STORY 6_SCHG 7,88.25,3.5,24.991,4.001E-002,2.000,2.501,0.000,0.000,0.000,0.000,4.501,No
 Zone Internal Gains Nominal, DU_BT=SPACE FUNCTION_ST=DWELLING UNITS GENERAL_FL=BUILDING STORY 7_SCHG,88.25,3.5,24.991,4.001E-002,2.000,2.501,0.000,0.000,0.000,0.000,4.501,No
 Zone Internal Gains Nominal, DU_BT=SPACE FUNCTION_ST=DWELLING UNITS GENERAL_FL=BUILDING STORY 7_SCHG 1,88.25,3.5,24.991,4.001E-002,2.000,2.501,0.000,0.000,0.000,0.000,4.501,No
 Zone Internal Gains Nominal, DU_BT=SPACE FUNCTION_ST=DWELLING UNITS GENERAL_FL=BUILDING STORY 7_SCHG 2,88.25,3.5,24.991,4.001E-002,2.000,2.501,0.000,0.000,0.000,0.000,4.501,No
 Zone Internal Gains Nominal, DU_BT=SPACE FUNCTION_ST=DWELLING UNITS GENERAL_FL=BUILDING STORY 7_SCHG 3,88.25,3.5,24.991,4.001E-002,2.000,2.501,0.000,0.000,0.000,0.000,4.501,No
 Zone Internal Gains Nominal, DU_BT=SPACE FUNCTION_ST=DWELLING UNITS GENERAL_FL=BUILDING STORY 7_SCHG 4,88.25,3.5,24.991,4.001E-002,2.000,2.501,0.000,0.000,0.000,0.000,4.501,No
 Zone Internal Gains Nominal, DU_BT=SPACE FUNCTION_ST=DWELLING UNITS GENERAL_FL=BUILDING STORY 7_SCHG 5,88.25,3.5,24.991,4.001E-002,2.000,2.501,0.000,0.000,0.000,0.000,4.501,No
 Zone Internal Gains Nominal, DU_BT=SPACE FUNCTION_ST=DWELLING UNITS GENERAL_FL=BUILDING STORY 7_SCHG 6,88.25,3.5,24.991,4.001E-002,2.000,2.501,0.000,0.000,0.000,0.000,4.501,No
 Zone Internal Gains Nominal, DU_BT=SPACE FUNCTION_ST=DWELLING UNITS GENERAL_FL=BUILDING STORY 7_SCHG 7,88.25,3.5,24.991,4.001E-002,2.000,2.501,0.000,0.000,0.000,0.000,4.501,No
 Zone Internal Gains Nominal, DU_BT=SPACE FUNCTION_ST=DWELLING UNITS GENERAL_FL=BUILDING STORY 8_SCHG,88.25,3.5,24.991,4.001E-002,2.000,2.501,0.000,0.000,0.000,0.000,4.501,No
 Zone Internal Gains Nominal, DU_BT=SPACE FUNCTION_ST=DWELLING UNITS GENERAL_FL=BUILDING STORY 8_SCHG 1,88.25,3.5,24.991,4.001E-002,2.000,2.501,0.000,0.000,0.000,0.000,4.501,No
 Zone Internal Gains Nominal, DU_BT=SPACE FUNCTION_ST=DWELLING UNITS GENERAL_FL=BUILDING STORY 8_SCHG 2,88.25,3.5,24.991,4.001E-002,2.000,2.501,0.000,0.000,0.000,0.000,4.501,No
 Zone Internal Gains Nominal, DU_BT=SPACE FUNCTION_ST=DWELLING UNITS GENERAL_FL=BUILDING STORY 8_SCHG 3,88.25,3.5,24.991,4.001E-002,2.000,2.501,0.000,0.000,0.000,0.000,4.501,No
 Zone Internal Gains Nominal, DU_BT=SPACE FUNCTION_ST=DWELLING UNITS GENERAL_FL=BUILDING STORY 8_SCHG 4,88.25,3.5,24.991,4.001E-002,2.000,2.501,0.000,0.000,0.000,0.000,4.501,No
 Zone Internal Gains Nominal, DU_BT=SPACE FUNCTION_ST=DWELLING UNITS GENERAL_FL=BUILDING STORY 8_SCHG 5,88.25,3.5,24.991,4.001E-002,2.000,2.501,0.000,0.000,0.000,0.000,4.501,No
 Zone Internal Gains Nominal, DU_BT=SPACE FUNCTION_ST=DWELLING UNITS GENERAL_FL=BUILDING STORY 8_SCHG 6,88.25,3.5,24.991,4.001E-002,2.000,2.501,0.000,0.000,0.000,0.000,4.501,No
 Zone Internal Gains Nominal, DU_BT=SPACE FUNCTION_ST=DWELLING UNITS GENERAL_FL=BUILDING STORY 8_SCHG 7,88.25,3.5,24.991,4.001E-002,2.000,2.501,0.000,0.000,0.000,0.000,4.501,No
 Zone Internal Gains Nominal, DU_BT=SPACE FUNCTION_ST=DWELLING UNITS GENERAL_FL=BUILDING STORY 9_SCHG,88.25,3.5,24.991,4.001E-002,2.000,2.501,0.000,0.000,0.000,0.000,4.501,No
 Zone Internal Gains Nominal, DU_BT=SPACE FUNCTION_ST=DWELLING UNITS GENERAL_FL=BUILDING STORY 9_SCHG 1,88.25,3.5,24.991,4.001E-002,2.000,2.501,0.000,0.000,0.000,0.000,4.501,No
 Zone Internal Gains Nominal, DU_BT=SPACE FUNCTION_ST=DWELLING UNITS GENERAL_FL=BUILDING STORY 9_SCHG 2,88.25,3.5,24.991,4.001E-002,2.000,2.501,0.000,0.000,0.000,0.000,4.501,No
 Zone Internal Gains Nominal, DU_BT=SPACE FUNCTION_ST=DWELLING UNITS GENERAL_FL=BUILDING STORY 9_SCHG 3,88.25,3.5,24.991,4.001E-002,2.000,2.501,0.000,0.000,0.000,0.000,4.501,No
 Zone Internal Gains Nominal, DU_BT=SPACE FUNCTION_ST=DWELLING UNITS GENERAL_FL=BUILDING STORY 9_SCHG 4,88.25,3.5,24.991,4.001E-002,2.000,2.501,0.000,0.000,0.000,0.000,4.501,No
 Zone Internal Gains Nominal, DU_BT=SPACE FUNCTION_ST=DWELLING UNITS GENERAL_FL=BUILDING STORY 9_SCHG 5,88.25,3.5,24.991,4.001E-002,2.000,2.501,0.000,0.000,0.000,0.000,4.501,No
 Zone Internal Gains Nominal, DU_BT=SPACE FUNCTION_ST=DWELLING UNITS GENERAL_FL=BUILDING STORY 9_SCHG 6,88.25,3.5,24.991,4.001E-002,2.000,2.501,0.000,0.000,0.000,0.000,4.501,No
 Zone Internal Gains Nominal, DU_BT=SPACE FUNCTION_ST=DWELLING UNITS GENERAL_FL=BUILDING STORY 9_SCHG 7,88.25,3.5,24.991,4.001E-002,2.000,2.501,0.000,0.000,0.000,0.000,4.501,No
 Zone Internal Gains Nominal, WILD_ST=CORRIDOR/TRANSITION AREA OTHER-SCH-G_FL=BUILDING STORY 10_SCH=G,77.66,0.8,99.964,1.000E-002,1.760,0.000,0.000,0.000,0.000,0.000,1.760,No
 Zone Internal Gains Nominal, WILD_ST=CORRIDOR/TRANSITION AREA OTHER-SCH-G_FL=BUILDING STORY 1_SCH=G,77.66,0.8,99.964,1.000E-002,1.760,0.000,0.000,0.000,0.000,0.000,1.760,No
 Zone Internal Gains Nominal, WILD_ST=CORRIDOR/TRANSITION AREA OTHER-SCH-G_FL=BUILDING STORY 2_SCH=G,77.66,0.8,99.964,1.000E-002,1.760,0.000,0.000,0.000,0.000,0.000,1.760,No
 Zone Internal Gains Nominal, WILD_ST=CORRIDOR/TRANSITION AREA OTHER-SCH-G_FL=BUILDING STORY 3_SCH=G,77.66,0.8,99.964,1.000E-002,1.760,0.000,0.000,0.000,0.000,0.000,1.760,No
 Zone Internal Gains Nominal, WILD_ST=CORRIDOR/TRANSITION AREA OTHER-SCH-G_FL=BUILDING STORY 4_SCH=G,77.66,0.8,99.964,1.000E-002,1.760,0.000,0.000,0.000,0.000,0.000,1.760,No
 Zone Internal Gains Nominal, WILD_ST=CORRIDOR/TRANSITION AREA OTHER-SCH-G_FL=BUILDING STORY 5_SCH=G,77.66,0.8,99.964,1.000E-002,1.760,0.000,0.000,0.000,0.000,0.000,1.760,No
 Zone Internal Gains Nominal, WILD_ST=CORRIDOR/TRANSITION AREA OTHER-SCH-G_FL=BUILDING STORY 6_SCH=G,77.66,0.8,99.964,1.000E-002,1.760,0.000,0.000,0.000,0.000,0.000,1.760,No
 Zone Internal Gains Nominal, WILD_ST=CORRIDOR/TRANSITION AREA OTHER-SCH-G_FL=BUILDING STORY 7_SCH=G,77.66,0.8,99.964,1.000E-002,1.760,0.000,0.000,0.000,0.000,0.000,1.760,No
 Zone Internal Gains Nominal, WILD_ST=CORRIDOR/TRANSITION AREA OTHER-SCH-G_FL=BUILDING STORY 8_SCH=G,77.66,0.8,99.964,1.000E-002,1.760,0.000,0.000,0.000,0.000,0.000,1.760,No
 Zone Internal Gains Nominal, WILD_ST=CORRIDOR/TRANSITION AREA OTHER-SCH-G_FL=BUILDING STORY 9_SCH=G,77.66,0.8,99.964,1.000E-002,1.760,0.000,0.000,0.000,0.000,0.000,1.760,No
! <People Internal Gains Nominal>,Name,Schedule Name,Zone Name,Zone Floor Area {m2},# Zone Occupants,Number of People {},People/Floor Area {person/m2},Floor Area per person {m2/person},Fraction Radiant,Fraction Convected,Sensible Fraction Calculation,Activity level,ASHRAE 55 Warnings,Carbon Dioxide Generation Rate,Nominal Minimum Number of People,Nominal Maximum Number of People
 People Internal Gains Nominal, WILD_ST=CORRIDOR/TRANSITION AREA OTHER-SCH-G_FL=BUILDING STORY 10_SCH=G SPACE FUNCTION CORRIDOR/TRANSITION AREA OTHER-SCH-G PEOPLE,NECB-G-OCCUPANCY,WILD_ST=CORRIDOR/TRANSITION AREA OTHER-SCH-G_FL=BUILDING STORY 10_SCH=G,77.66,0.8,0.8,1.000E-002,99.964,0.300,0.700,AutoCalculate,NECB-ACTIVITY,No,3.8200E-008,0,1
 People Internal Gains Nominal, WILD_ST=CORRIDOR/TRANSITION AREA OTHER-SCH-G_FL=BUILDING STORY 1_SCH=G SPACE FUNCTION CORRIDOR/TRANSITION AREA OTHER-SCH-G PEOPLE,NECB-G-OCCUPANCY,WILD_ST=CORRIDOR/TRANSITION AREA OTHER-SCH-G_FL=BUILDING STORY 1_SCH=G,77.66,0.8,0.8,1.000E-002,99.964,0.300,0.700,AutoCalculate,NECB-ACTIVITY,No,3.8200E-008,0,1
 People Internal Gains Nominal, WILD_ST=CORRIDOR/TRANSITION AREA OTHER-SCH-G_FL=BUILDING STORY 2_SCH=G SPACE FUNCTION CORRIDOR/TRANSITION AREA OTHER-SCH-G PEOPLE,NECB-G-OCCUPANCY,WILD_ST=CORRIDOR/TRANSITION AREA OTHER-SCH-G_FL=BUILDING STORY 2_SCH=G,77.66,0.8,0.8,1.000E-002,99.964,0.300,0.700,AutoCalculate,NECB-ACTIVITY,No,3.8200E-008,0,1
 People Internal Gains Nominal, WILD_ST=CORRIDOR/TRANSITION AREA OTHER-SCH-G_FL=BUILDING STORY 3_SCH=G SPACE FUNCTION CORRIDOR/TRANSITION AREA OTHER-SCH-G PEOPLE,NECB-G-OCCUPANCY,WILD_ST=CORRIDOR/TRANSITION AREA OTHER-SCH-G_FL=BUILDING STORY 3_SCH=G,77.66,0.8,0.8,1.000E-002,99.964,0.300,0.700,AutoCalculate,NECB-ACTIVITY,No,3.8200E-008,0,1
 People Internal Gains Nominal, WILD_ST=CORRIDOR/TRANSITION AREA OTHER-SCH-G_FL=BUILDING STORY 4_SCH=G SPACE FUNCTION CORRIDOR/TRANSITION AREA OTHER-SCH-G PEOPLE,NECB-G-OCCUPANCY,WILD_ST=CORRIDOR/TRANSITION AREA OTHER-SCH-G_FL=BUILDING STORY 4_SCH=G,77.66,0.8,0.8,1.000E-002,99.964,0.300,0.700,AutoCalculate,NECB-ACTIVITY,No,3.8200E-008,0,1
 People Internal Gains Nominal, WILD_ST=CORRIDOR/TRANSITION AREA OTHER-SCH-G_FL=BUILDING STORY 5_SCH=G SPACE FUNCTION CORRIDOR/TRANSITION AREA OTHER-SCH-G PEOPLE,NECB-G-OCCUPANCY,WILD_ST=CORRIDOR/TRANSITION AREA OTHER-SCH-G_FL=BUILDING STORY 5_SCH=G,77.66,0.8,0.8,1.000E-002,99.964,0.300,0.700,AutoCalculate,NECB-ACTIVITY,No,3.8200E-008,0,1
 People Internal Gains Nominal, WILD_ST=CORRIDOR/TRANSITION AREA OTHER-SCH-G_FL=BUILDING STORY 6_SCH=G SPACE FUNCTION CORRIDOR/TRANSITION AREA OTHER-SCH-G PEOPLE,NECB-G-OCCUPANCY,WILD_ST=CORRIDOR/TRANSITION AREA OTHER-SCH-G_FL=BUILDING STORY 6_SCH=G,77.66,0.8,0.8,1.000E-002,99.964,0.300,0.700,AutoCalculate,NECB-ACTIVITY,No,3.8200E-008,0,1
 People Internal Gains Nominal, WILD_ST=CORRIDOR/TRANSITION AREA OTHER-SCH-G_FL=BUILDING STORY 7_SCH=G SPACE FUNCTION CORRIDOR/TRANSITION AREA OTHER-SCH-G PEOPLE,NECB-G-OCCUPANCY,WILD_ST=CORRIDOR/TRANSITION AREA OTHER-SCH-G_FL=BUILDING STORY 7_SCH=G,77.66,0.8,0.8,1.000E-002,99.964,0.300,0.700,AutoCalculate,NECB-ACTIVITY,No,3.8200E-008,0,1
 People Internal Gains Nominal, WILD_ST=CORRIDOR/TRANSITION AREA OTHER-SCH-G_FL=BUILDING STORY 8_SCH=G SPACE FUNCTION CORRIDOR/TRANSITION AREA OTHER-SCH-G PEOPLE,NECB-G-OCCUPANCY,WILD_ST=CORRIDOR/TRANSITION AREA OTHER-SCH-G_FL=BUILDING STORY 8_SCH=G,77.66,0.8,0.8,1.000E-002,99.964,0.300,0.700,AutoCalculate,NECB-ACTIVITY,No,3.8200E-008,0,1
 People Internal Gains Nominal, WILD_ST=CORRIDOR/TRANSITION AREA OTHER-SCH-G_FL=BUILDING STORY 9_SCH=G SPACE FUNCTION CORRIDOR/TRANSITION AREA OTHER-SCH-G PEOPLE,NECB-G-OCCUPANCY,WILD_ST=CORRIDOR/TRANSITION AREA OTHER-SCH-G_FL=BUILDING STORY 9_SCH=G,77.66,0.8,0.8,1.000E-002,99.964,0.300,0.700,AutoCalculate,NECB-ACTIVITY,No,3.8200E-008,0,1
 People Internal Gains Nominal, DU_BT=SPACE FUNCTION_ST=DWELLING UNITS GENERAL_FL=BUILDING STORY 10_SCHG SPACE FUNCTION DWELLING UNITS GENERAL PEOPLE,NECB-G-OCCUPANCY,DU_BT=SPACE FUNCTION_ST=DWELLING UNITS GENERAL_FL=BUILDING STORY 10_SCHG,88.25,3.5,3.5,4.001E-002,24.991,0.300,0.700,AutoCalculate,NECB-ACTIVITY,No,3.8200E-008,1,3
 People Internal Gains Nominal, DU_BT=SPACE FUNCTION_ST=DWELLING UNITS GENERAL_FL=BUILDING STORY 10_SCHG 1 SPACE FUNCTION DWELLING UNITS GENERAL PEOPLE,NECB-G-OCCUPANCY,DU_BT=SPACE FUNCTION_ST=DWELLING UNITS GENERAL_FL=BUILDING STORY 10_SCHG 1,88.25,3.5,3.5,4.001E-002,24.991,0.300,0.700,AutoCalculate,NECB-ACTIVITY,No,3.8200E-008,1,3
 People Internal Gains Nominal, DU_BT=SPACE FUNCTION_ST=DWELLING UNITS GENERAL_FL=BUILDING STORY 10_SCHG 2 SPACE FUNCTION DWELLING UNITS GENERAL PEOPLE,NECB-G-OCCUPANCY,DU_BT=SPACE FUNCTION_ST=DWELLING UNITS GENERAL_FL=BUILDING STORY 10_SCHG 2,88.25,3.5,3.5,4.001E-002,24.991,0.300,0.700,AutoCalculate,NECB-ACTIVITY,No,3.8200E-008,1,3
 People Internal Gains Nominal, DU_BT=SPACE FUNCTION_ST=DWELLING UNITS GENERAL_FL=BUILDING STORY 10_SCHG 3 SPACE FUNCTION DWELLING UNITS GENERAL PEOPLE,NECB-G-OCCUPANCY,DU_BT=SPACE FUNCTION_ST=DWELLING UNITS GENERAL_FL=BUILDING STORY 10_SCHG 3,88.25,3.5,3.5,4.001E-002,24.991,0.300,0.700,AutoCalculate,NECB-ACTIVITY,No,3.8200E-008,1,3
 People Internal Gains Nominal, DU_BT=SPACE FUNCTION_ST=DWELLING UNITS GENERAL_FL=BUILDING STORY 10_SCHG 4 SPACE FUNCTION DWELLING UNITS GENERAL PEOPLE,NECB-G-OCCUPANCY,DU_BT=SPACE FUNCTION_ST=DWELLING UNITS GENERAL_FL=BUILDING STORY 10_SCHG 4,88.25,3.5,3.5,4.001E-002,24.991,0.300,0.700,AutoCalculate,NECB-ACTIVITY,No,3.8200E-008,1,3
 People Internal Gains Nominal, DU_BT=SPACE FUNCTION_ST=DWELLING UNITS GENERAL_FL=BUILDING STORY 10_SCHG 5 SPACE FUNCTION DWELLING UNITS GENERAL PEOPLE,NECB-G-OCCUPANCY,DU_BT=SPACE FUNCTION_ST=DWELLING UNITS GENERAL_FL=BUILDING STORY 10_SCHG 5,88.25,3.5,3.5,4.001E-002,24.991,0.300,0.700,AutoCalculate,NECB-ACTIVITY,No,3.8200E-008,1,3
 People Internal Gains Nominal, DU_BT=SPACE FUNCTION_ST=DWELLING UNITS GENERAL_FL=BUILDING STORY 10_SCHG 6 SPACE FUNCTION DWELLING UNITS GENERAL PEOPLE,NECB-G-OCCUPANCY,DU_BT=SPACE FUNCTION_ST=DWELLING UNITS GENERAL_FL=BUILDING STORY 10_SCHG 6,88.25,3.5,3.5,4.001E-002,24.991,0.300,0.700,AutoCalculate,NECB-ACTIVITY,No,3.8200E-008,1,3
 People Internal Gains Nominal, DU_BT=SPACE FUNCTION_ST=DWELLING UNITS GENERAL_FL=BUILDING STORY 10_SCHG 7 SPACE FUNCTION DWELLING UNITS GENERAL PEOPLE,NECB-G-OCCUPANCY,DU_BT=SPACE FUNCTION_ST=DWELLING UNITS GENERAL_FL=BUILDING STORY 10_SCHG 7,88.25,3.5,3.5,4.001E-002,24.991,0.300,0.700,AutoCalculate,NECB-ACTIVITY,No,3.8200E-008,1,3
 People Internal Gains Nominal, DU_BT=SPACE FUNCTION_ST=DWELLING UNITS GENERAL_FL=BUILDING STORY 1_SCHG SPACE FUNCTION DWELLING UNITS GENERAL PEOPLE,NECB-G-OCCUPANCY,DU_BT=SPACE FUNCTION_ST=DWELLING UNITS GENERAL_FL=BUILDING STORY 1_SCHG,88.25,3.5,3.5,4.001E-002,24.991,0.300,0.700,AutoCalculate,NECB-ACTIVITY,No,3.8200E-008,1,3
 People Internal Gains Nominal, DU_BT=SPACE FUNCTION_ST=DWELLING UNITS GENERAL_FL=BUILDING STORY 1_SCHG 1 SPACE FUNCTION DWELLING UNITS GENERAL PEOPLE,NECB-G-OCCUPANCY,DU_BT=SPACE FUNCTION_ST=DWELLING UNITS GENERAL_FL=BUILDING STORY 1_SCHG 1,88.25,3.5,3.5,4.001E-002,24.991,0.300,0.700,AutoCalculate,NECB-ACTIVITY,No,3.8200E-008,1,3
 People Internal Gains Nominal, DU_BT=SPACE FUNCTION_ST=DWELLING UNITS GENERAL_FL=BUILDING STORY 1_SCHG 2 SPACE FUNCTION DWELLING UNITS GENERAL PEOPLE,NECB-G-OCCUPANCY,DU_BT=SPACE FUNCTION_ST=DWELLING UNITS GENERAL_FL=BUILDING STORY 1_SCHG 2,88.25,3.5,3.5,4.001E-002,24.991,0.300,0.700,AutoCalculate,NECB-ACTIVITY,No,3.8200E-008,1,3
 People Internal Gains Nominal, DU_BT=SPACE FUNCTION_ST=DWELLING UNITS GENERAL_FL=BUILDING STORY 1_SCHG 3 SPACE FUNCTION DWELLING UNITS GENERAL PEOPLE,NECB-G-OCCUPANCY,DU_BT=SPACE FUNCTION_ST=DWELLING UNITS GENERAL_FL=BUILDING STORY 1_SCHG 3,88.25,3.5,3.5,4.001E-002,24.991,0.300,0.700,AutoCalculate,NECB-ACTIVITY,No,3.8200E-008,1,3
 People Internal Gains Nominal, DU_BT=SPACE FUNCTION_ST=DWELLING UNITS GENERAL_FL=BUILDING STORY 1_SCHG 4 SPACE FUNCTION DWELLING UNITS GENERAL PEOPLE,NECB-G-OCCUPANCY,DU_BT=SPACE FUNCTION_ST=DWELLING UNITS GENERAL_FL=BUILDING STORY 1_SCHG 4,88.25,3.5,3.5,4.001E-002,24.991,0.300,0.700,AutoCalculate,NECB-ACTIVITY,No,3.8200E-008,1,3
 People Internal Gains Nominal, DU_BT=SPACE FUNCTION_ST=DWELLING UNITS GENERAL_FL=BUILDING STORY 1_SCHG 5 SPACE FUNCTION DWELLING UNITS GENERAL PEOPLE,NECB-G-OCCUPANCY,DU_BT=SPACE FUNCTION_ST=DWELLING UNITS GENERAL_FL=BUILDING STORY 1_SCHG 5,88.25,3.5,3.5,4.001E-002,24.991,0.300,0.700,AutoCalculate,NECB-ACTIVITY,No,3.8200E-008,1,3
 People Internal Gains Nominal, DU_BT=SPACE FUNCTION_ST=DWELLING UNITS GENERAL_FL=BUILDING STORY 1_SCHG 6 SPACE FUNCTION DWELLING UNITS GENERAL PEOPLE,NECB-G-OCCUPANCY,DU_BT=SPACE FUNCTION_ST=DWELLING UNITS GENERAL_FL=BUILDING STORY 1_SCHG 6,88.25,3.5,3.5,4.001E-002,24.991,0.300,0.700,AutoCalculate,NECB-ACTIVITY,No,3.8200E-008,1,3
 People Internal Gains Nominal, DU_BT=SPACE FUNCTION_ST=DWELLING UNITS GENERAL_FL=BUILDING STORY 2_SCHG SPACE FUNCTION DWELLING UNITS GENERAL PEOPLE,NECB-G-OCCUPANCY,DU_BT=SPACE FUNCTION_ST=DWELLING UNITS GENERAL_FL=BUILDING STORY 2_SCHG,88.25,3.5,3.5,4.001E-002,24.991,0.300,0.700,AutoCalculate,NECB-ACTIVITY,No,3.8200E-008,1,3
 People Internal Gains Nominal, DU_BT=SPACE FUNCTION_ST=DWELLING UNITS GENERAL_FL=BUILDING STORY 2_SCHG 1 SPACE FUNCTION DWELLING UNITS GENERAL PEOPLE,NECB-G-OCCUPANCY,DU_BT=SPACE FUNCTION_ST=DWELLING UNITS GENERAL_FL=BUILDING STORY 2_SCHG 1,88.25,3.5,3.5,4.001E-002,24.991,0.300,0.700,AutoCalculate,NECB-ACTIVITY,No,3.8200E-008,1,3
 People Internal Gains Nominal, DU_BT=SPACE FUNCTION_ST=DWELLING UNITS GENERAL_FL=BUILDING STORY 2_SCHG 2 SPACE FUNCTION DWELLING UNITS GENERAL PEOPLE,NECB-G-OCCUPANCY,DU_BT=SPACE FUNCTION_ST=DWELLING UNITS GENERAL_FL=BUILDING STORY 2_SCHG 2,88.25,3.5,3.5,4.001E-002,24.991,0.300,0.700,AutoCalculate,NECB-ACTIVITY,No,3.8200E-008,1,3
 People Internal Gains Nominal, DU_BT=SPACE FUNCTION_ST=DWELLING UNITS GENERAL_FL=BUILDING STORY 2_SCHG 3 SPACE FUNCTION DWELLING UNITS GENERAL PEOPLE,NECB-G-OCCUPANCY,DU_BT=SPACE FUNCTION_ST=DWELLING UNITS GENERAL_FL=BUILDING STORY 2_SCHG 3,88.25,3.5,3.5,4.001E-002,24.991,0.300,0.700,AutoCalculate,NECB-ACTIVITY,No,3.8200E-008,1,3
 People Internal Gains Nominal, DU_BT=SPACE FUNCTION_ST=DWELLING UNITS GENERAL_FL=BUILDING STORY 2_SCHG 4 SPACE FUNCTION DWELLING UNITS GENERAL PEOPLE,NECB-G-OCCUPANCY,DU_BT=SPACE FUNCTION_ST=DWELLING UNITS GENERAL_FL=BUILDING STORY 2_SCHG 4,88.25,3.5,3.5,4.001E-002,24.991,0.300,0.700,AutoCalculate,NECB-ACTIVITY,No,3.8200E-008,1,3
 People Internal Gains Nominal, DU_BT=SPACE FUNCTION_ST=DWELLING UNITS GENERAL_FL=BUILDING STORY 2_SCHG 5 SPACE FUNCTION DWELLING UNITS GENERAL PEOPLE,NECB-G-OCCUPANCY,DU_BT=SPACE FUNCTION_ST=DWELLING UNITS GENERAL_FL=BUILDING STORY 2_SCHG 5,88.25,3.5,3.5,4.001E-002,24.991,0.300,0.700,AutoCalculate,NECB-ACTIVITY,No,3.8200E-008,1,3
 People Internal Gains Nominal, DU_BT=SPACE FUNCTION_ST=DWELLING UNITS GENERAL_FL=BUILDING STORY 2_SCHG 6 SPACE FUNCTION DWELLING UNITS GENERAL PEOPLE,NECB-G-OCCUPANCY,DU_BT=SPACE FUNCTION_ST=DWELLING UNITS GENERAL_FL=BUILDING STORY 2_SCHG 6,88.25,3.5,3.5,4.001E-002,24.991,0.300,0.700,AutoCalculate,NECB-ACTIVITY,No,3.8200E-008,1,3
 People Internal Gains Nominal, DU_BT=SPACE FUNCTION_ST=DWELLING UNITS GENERAL_FL=BUILDING STORY 2_SCHG 7 SPACE FUNCTION DWELLING UNITS GENERAL PEOPLE,NECB-G-OCCUPANCY,DU_BT=SPACE FUNCTION_ST=DWELLING UNITS GENERAL_FL=BUILDING STORY 2_SCHG 7,88.25,3.5,3.5,4.001E-002,24.991,0.300,0.700,AutoCalculate,NECB-ACTIVITY,No,3.8200E-008,1,3
 People Internal Gains Nominal, DU_BT=SPACE FUNCTION_ST=DWELLING UNITS GENERAL_FL=BUILDING STORY 3_SCHG SPACE FUNCTION DWELLING UNITS GENERAL PEOPLE,NECB-G-OCCUPANCY,DU_BT=SPACE FUNCTION_ST=DWELLING UNITS GENERAL_FL=BUILDING STORY 3_SCHG,88.25,3.5,3.5,4.001E-002,24.991,0.300,0.700,AutoCalculate,NECB-ACTIVITY,No,3.8200E-008,1,3
 People Internal Gains Nominal, DU_BT=SPACE FUNCTION_ST=DWELLING UNITS GENERAL_FL=BUILDING STORY 3_SCHG 1 SPACE FUNCTION DWELLING UNITS GENERAL PEOPLE,NECB-G-OCCUPANCY,DU_BT=SPACE FUNCTION_ST=DWELLING UNITS GENERAL_FL=BUILDING STORY 3_SCHG 1,88.25,3.5,3.5,4.001E-002,24.991,0.300,0.700,AutoCalculate,NECB-ACTIVITY,No,3.8200E-008,1,3
 People Internal Gains Nominal, DU_BT=SPACE FUNCTION_ST=DWELLING UNITS GENERAL_FL=BUILDING STORY 3_SCHG 2 SPACE FUNCTION DWELLING UNITS GENERAL PEOPLE,NECB-G-OCCUPANCY,DU_BT=SPACE FUNCTION_ST=DWELLING UNITS GENERAL_FL=BUILDING STORY 3_SCHG 2,88.25,3.5,3.5,4.001E-002,24.991,0.300,0.700,AutoCalculate,NECB-ACTIVITY,No,3.8200E-008,1,3
 People Internal Gains Nominal, DU_BT=SPACE FUNCTION_ST=DWELLING UNITS GENERAL_FL=BUILDING STORY 3_SCHG 3 SPACE FUNCTION DWELLING UNITS GENERAL PEOPLE,NECB-G-OCCUPANCY,DU_BT=SPACE FUNCTION_ST=DWELLING UNITS GENERAL_FL=BUILDING STORY 3_SCHG 3,88.25,3.5,3.5,4.001E-002,24.991,0.300,0.700,AutoCalculate,NECB-ACTIVITY,No,3.8200E-008,1,3
 People Internal Gains Nominal, DU_BT=SPACE FUNCTION_ST=DWELLING UNITS GENERAL_FL=BUILDING STORY 3_SCHG 4 SPACE FUNCTION DWELLING UNITS GENERAL PEOPLE,NECB-G-OCCUPANCY,DU_BT=SPACE FUNCTION_ST=DWELLING UNITS GENERAL_FL=BUILDING STORY 3_SCHG 4,88.25,3.5,3.5,4.001E-002,24.991,0.300,0.700,AutoCalculate,NECB-ACTIVITY,No,3.8200E-008,1,3
 People Internal Gains Nominal, DU_BT=SPACE FUNCTION_ST=DWELLING UNITS GENERAL_FL=BUILDING STORY 3_SCHG 5 SPACE FUNCTION DWELLING UNITS GENERAL PEOPLE,NECB-G-OCCUPANCY,DU_BT=SPACE FUNCTION_ST=DWELLING UNITS GENERAL_FL=BUILDING STORY 3_SCHG 5,88.25,3.5,3.5,4.001E-002,24.991,0.300,0.700,AutoCalculate,NECB-ACTIVITY,No,3.8200E-008,1,3
 People Internal Gains Nominal, DU_BT=SPACE FUNCTION_ST=DWELLING UNITS GENERAL_FL=BUILDING STORY 3_SCHG 6 SPACE FUNCTION DWELLING UNITS GENERAL PEOPLE,NECB-G-OCCUPANCY,DU_BT=SPACE FUNCTION_ST=DWELLING UNITS GENERAL_FL=BUILDING STORY 3_SCHG 6,88.25,3.5,3.5,4.001E-002,24.991,0.300,0.700,AutoCalculate,NECB-ACTIVITY,No,3.8200E-008,1,3
 People Internal Gains Nominal, DU_BT=SPACE FUNCTION_ST=DWELLING UNITS GENERAL_FL=BUILDING STORY 3_SCHG 7 SPACE FUNCTION DWELLING UNITS GENERAL PEOPLE,NECB-G-OCCUPANCY,DU_BT=SPACE FUNCTION_ST=DWELLING UNITS GENERAL_FL=BUILDING STORY 3_SCHG 7,88.25,3.5,3.5,4.001E-002,24.991,0.300,0.700,AutoCalculate,NECB-ACTIVITY,No,3.8200E-008,1,3
 People Internal Gains Nominal, DU_BT=SPACE FUNCTION_ST=DWELLING UNITS GENERAL_FL=BUILDING STORY 4_SCHG SPACE FUNCTION DWELLING UNITS GENERAL PEOPLE,NECB-G-OCCUPANCY,DU_BT=SPACE FUNCTION_ST=DWELLING UNITS GENERAL_FL=BUILDING STORY 4_SCHG,88.25,3.5,3.5,4.001E-002,24.991,0.300,0.700,AutoCalculate,NECB-ACTIVITY,No,3.8200E-008,1,3
 People Internal Gains Nominal, DU_BT=SPACE FUNCTION_ST=DWELLING UNITS GENERAL_FL=BUILDING STORY 4_SCHG 1 SPACE FUNCTION DWELLING UNITS GENERAL PEOPLE,NECB-G-OCCUPANCY,DU_BT=SPACE FUNCTION_ST=DWELLING UNITS GENERAL_FL=BUILDING STORY 4_SCHG 1,88.25,3.5,3.5,4.001E-002,24.991,0.300,0.700,AutoCalculate,NECB-ACTIVITY,No,3.8200E-008,1,3
 People Internal Gains Nominal, DU_BT=SPACE FUNCTION_ST=DWELLING UNITS GENERAL_FL=BUILDING STORY 4_SCHG 2 SPACE FUNCTION DWELLING UNITS GENERAL PEOPLE,NECB-G-OCCUPANCY,DU_BT=SPACE FUNCTION_ST=DWELLING UNITS GENERAL_FL=BUILDING STORY 4_SCHG 2,88.25,3.5,3.5,4.001E-002,24.991,0.300,0.700,AutoCalculate,NECB-ACTIVITY,No,3.8200E-008,1,3
 People Internal Gains Nominal, DU_BT=SPACE FUNCTION_ST=DWELLING UNITS GENERAL_FL=BUILDING STORY 4_SCHG 3 SPACE FUNCTION DWELLING UNITS GENERAL PEOPLE,NECB-G-OCCUPANCY,DU_BT=SPACE FUNCTION_ST=DWELLING UNITS GENERAL_FL=BUILDING STORY 4_SCHG 3,88.25,3.5,3.5,4.001E-002,24.991,0.300,0.700,AutoCalculate,NECB-ACTIVITY,No,3.8200E-008,1,3
 People Internal Gains Nominal, DU_BT=SPACE FUNCTION_ST=DWELLING UNITS GENERAL_FL=BUILDING STORY 4_SCHG 4 SPACE FUNCTION DWELLING UNITS GENERAL PEOPLE,NECB-G-OCCUPANCY,DU_BT=SPACE FUNCTION_ST=DWELLING UNITS GENERAL_FL=BUILDING STORY 4_SCHG 4,88.25,3.5,3.5,4.001E-002,24.991,0.300,0.700,AutoCalculate,NECB-ACTIVITY,No,3.8200E-008,1,3
 People Internal Gains Nominal, DU_BT=SPACE FUNCTION_ST=DWELLING UNITS GENERAL_FL=BUILDING STORY 4_SCHG 5 SPACE FUNCTION DWELLING UNITS GENERAL PEOPLE,NECB-G-OCCUPANCY,DU_BT=SPACE FUNCTION_ST=DWELLING UNITS GENERAL_FL=BUILDING STORY 4_SCHG 5,88.25,3.5,3.5,4.001E-002,24.991,0.300,0.700,AutoCalculate,NECB-ACTIVITY,No,3.8200E-008,1,3
 People Internal Gains Nominal, DU_BT=SPACE FUNCTION_ST=DWELLING UNITS GENERAL_FL=BUILDING STORY 4_SCHG 6 SPACE FUNCTION DWELLING UNITS GENERAL PEOPLE,NECB-G-OCCUPANCY,DU_BT=SPACE FUNCTION_ST=DWELLING UNITS GENERAL_FL=BUILDING STORY 4_SCHG 6,88.25,3.5,3.5,4.001E-002,24.991,0.300,0.700,AutoCalculate,NECB-ACTIVITY,No,3.8200E-008,1,3
 People Internal Gains Nominal, DU_BT=SPACE FUNCTION_ST=DWELLING UNITS GENERAL_FL=BUILDING STORY 4_SCHG 7 SPACE FUNCTION DWELLING UNITS GENERAL PEOPLE,NECB-G-OCCUPANCY,DU_BT=SPACE FUNCTION_ST=DWELLING UNITS GENERAL_FL=BUILDING STORY 4_SCHG 7,88.25,3.5,3.5,4.001E-002,24.991,0.300,0.700,AutoCalculate,NECB-ACTIVITY,No,3.8200E-008,1,3
 People Internal Gains Nominal, DU_BT=SPACE FUNCTION_ST=DWELLING UNITS GENERAL_FL=BUILDING STORY 5_SCHG SPACE FUNCTION DWELLING UNITS GENERAL PEOPLE,NECB-G-OCCUPANCY,DU_BT=SPACE FUNCTION_ST=DWELLING UNITS GENERAL_FL=BUILDING STORY 5_SCHG,88.25,3.5,3.5,4.001E-002,24.991,0.300,0.700,AutoCalculate,NECB-ACTIVITY,No,3.8200E-008,1,3
 People Internal Gains Nominal, DU_BT=SPACE FUNCTION_ST=DWELLING UNITS GENERAL_FL=BUILDING STORY 5_SCHG 1 SPACE FUNCTION DWELLING UNITS GENERAL PEOPLE,NECB-G-OCCUPANCY,DU_BT=SPACE FUNCTION_ST=DWELLING UNITS GENERAL_FL=BUILDING STORY 5_SCHG 1,88.25,3.5,3.5,4.001E-002,24.991,0.300,0.700,AutoCalculate,NECB-ACTIVITY,No,3.8200E-008,1,3
 People Internal Gains Nominal, DU_BT=SPACE FUNCTION_ST=DWELLING UNITS GENERAL_FL=BUILDING STORY 5_SCHG 2 SPACE FUNCTION DWELLING UNITS GENERAL PEOPLE,NECB-G-OCCUPANCY,DU_BT=SPACE FUNCTION_ST=DWELLING UNITS GENERAL_FL=BUILDING STORY 5_SCHG 2,88.25,3.5,3.5,4.001E-002,24.991,0.300,0.700,AutoCalculate,NECB-ACTIVITY,No,3.8200E-008,1,3
 People Internal Gains Nominal, DU_BT=SPACE FUNCTION_ST=DWELLING UNITS GENERAL_FL=BUILDING STORY 5_SCHG 3 SPACE FUNCTION DWELLING UNITS GENERAL PEOPLE,NECB-G-OCCUPANCY,DU_BT=SPACE FUNCTION_ST=DWELLING UNITS GENERAL_FL=BUILDING STORY 5_SCHG 3,88.25,3.5,3.5,4.001E-002,24.991,0.300,0.700,AutoCalculate,NECB-ACTIVITY,No,3.8200E-008,1,3
 People Internal Gains Nominal, DU_BT=SPACE FUNCTION_ST=DWELLING UNITS GENERAL_FL=BUILDING STORY 5_SCHG 4 SPACE FUNCTION DWELLING UNITS GENERAL PEOPLE,NECB-G-OCCUPANCY,DU_BT=SPACE FUNCTION_ST=DWELLING UNITS GENERAL_FL=BUILDING STORY 5_SCHG 4,88.25,3.5,3.5,4.001E-002,24.991,0.300,0.700,AutoCalculate,NECB-ACTIVITY,No,3.8200E-008,1,3
 People Internal Gains Nominal, DU_BT=SPACE FUNCTION_ST=DWELLING UNITS GENERAL_FL=BUILDING STORY 5_SCHG 5 SPACE FUNCTION DWELLING UNITS GENERAL PEOPLE,NECB-G-OCCUPANCY,DU_BT=SPACE FUNCTION_ST=DWELLING UNITS GENERAL_FL=BUILDING STORY 5_SCHG 5,88.25,3.5,3.5,4.001E-002,24.991,0.300,0.700,AutoCalculate,NECB-ACTIVITY,No,3.8200E-008,1,3
 People Internal Gains Nominal, DU_BT=SPACE FUNCTION_ST=DWELLING UNITS GENERAL_FL=BUILDING STORY 5_SCHG 6 SPACE FUNCTION DWELLING UNITS GENERAL PEOPLE,NECB-G-OCCUPANCY,DU_BT=SPACE FUNCTION_ST=DWELLING UNITS GENERAL_FL=BUILDING STORY 5_SCHG 6,88.25,3.5,3.5,4.001E-002,24.991,0.300,0.700,AutoCalculate,NECB-ACTIVITY,No,3.8200E-008,1,3
 People Internal Gains Nominal, DU_BT=SPACE FUNCTION_ST=DWELLING UNITS GENERAL_FL=BUILDING STORY 5_SCHG 7 SPACE FUNCTION DWELLING UNITS GENERAL PEOPLE,NECB-G-OCCUPANCY,DU_BT=SPACE FUNCTION_ST=DWELLING UNITS GENERAL_FL=BUILDING STORY 5_SCHG 7,88.25,3.5,3.5,4.001E-002,24.991,0.300,0.700,AutoCalculate,NECB-ACTIVITY,No,3.8200E-008,1,3
 People Internal Gains Nominal, DU_BT=SPACE FUNCTION_ST=DWELLING UNITS GENERAL_FL=BUILDING STORY 6_SCHG SPACE FUNCTION DWELLING UNITS GENERAL PEOPLE,NECB-G-OCCUPANCY,DU_BT=SPACE FUNCTION_ST=DWELLING UNITS GENERAL_FL=BUILDING STORY 6_SCHG,88.25,3.5,3.5,4.001E-002,24.991,0.300,0.700,AutoCalculate,NECB-ACTIVITY,No,3.8200E-008,1,3
 People Internal Gains Nominal, DU_BT=SPACE FUNCTION_ST=DWELLING UNITS GENERAL_FL=BUILDING STORY 6_SCHG 1 SPACE FUNCTION DWELLING UNITS GENERAL PEOPLE,NECB-G-OCCUPANCY,DU_BT=SPACE FUNCTION_ST=DWELLING UNITS GENERAL_FL=BUILDING STORY 6_SCHG 1,88.25,3.5,3.5,4.001E-002,24.991,0.300,0.700,AutoCalculate,NECB-ACTIVITY,No,3.8200E-008,1,3
 People Internal Gains Nominal, DU_BT=SPACE FUNCTION_ST=DWELLING UNITS GENERAL_FL=BUILDING STORY 6_SCHG 2 SPACE FUNCTION DWELLING UNITS GENERAL PEOPLE,NECB-G-OCCUPANCY,DU_BT=SPACE FUNCTION_ST=DWELLING UNITS GENERAL_FL=BUILDING STORY 6_SCHG 2,88.25,3.5,3.5,4.001E-002,24.991,0.300,0.700,AutoCalculate,NECB-ACTIVITY,No,3.8200E-008,1,3
 People Internal Gains Nominal, DU_BT=SPACE FUNCTION_ST=DWELLING UNITS GENERAL_FL=BUILDING STORY 6_SCHG 3 SPACE FUNCTION DWELLING UNITS GENERAL PEOPLE,NECB-G-OCCUPANCY,DU_BT=SPACE FUNCTION_ST=DWELLING UNITS GENERAL_FL=BUILDING STORY 6_SCHG 3,88.25,3.5,3.5,4.001E-002,24.991,0.300,0.700,AutoCalculate,NECB-ACTIVITY,No,3.8200E-008,1,3
 People Internal Gains Nominal, DU_BT=SPACE FUNCTION_ST=DWELLING UNITS GENERAL_FL=BUILDING STORY 6_SCHG 4 SPACE FUNCTION DWELLING UNITS GENERAL PEOPLE,NECB-G-OCCUPANCY,DU_BT=SPACE FUNCTION_ST=DWELLING UNITS GENERAL_FL=BUILDING STORY 6_SCHG 4,88.25,3.5,3.5,4.001E-002,24.991,0.300,0.700,AutoCalculate,NECB-ACTIVITY,No,3.8200E-008,1,3
 People Internal Gains Nominal, DU_BT=SPACE FUNCTION_ST=DWELLING UNITS GENERAL_FL=BUILDING STORY 6_SCHG 5 SPACE FUNCTION DWELLING UNITS GENERAL PEOPLE,NECB-G-OCCUPANCY,DU_BT=SPACE FUNCTION_ST=DWELLING UNITS GENERAL_FL=BUILDING STORY 6_SCHG 5,88.25,3.5,3.5,4.001E-002,24.991,0.300,0.700,AutoCalculate,NECB-ACTIVITY,No,3.8200E-008,1,3
 People Internal Gains Nominal, DU_BT=SPACE FUNCTION_ST=DWELLING UNITS GENERAL_FL=BUILDING STORY 6_SCHG 6 SPACE FUNCTION DWELLING UNITS GENERAL PEOPLE,NECB-G-OCCUPANCY,DU_BT=SPACE FUNCTION_ST=DWELLING UNITS GENERAL_FL=BUILDING STORY 6_SCHG 6,88.25,3.5,3.5,4.001E-002,24.991,0.300,0.700,AutoCalculate,NECB-ACTIVITY,No,3.8200E-008,1,3
 People Internal Gains Nominal, DU_BT=SPACE FUNCTION_ST=DWELLING UNITS GENERAL_FL=BUILDING STORY 6_SCHG 7 SPACE FUNCTION DWELLING UNITS GENERAL PEOPLE,NECB-G-OCCUPANCY,DU_BT=SPACE FUNCTION_ST=DWELLING UNITS GENERAL_FL=BUILDING STORY 6_SCHG 7,88.25,3.5,3.5,4.001E-002,24.991,0.300,0.700,AutoCalculate,NECB-ACTIVITY,No,3.8200E-008,1,3
 People Internal Gains Nominal, DU_BT=SPACE FUNCTION_ST=DWELLING UNITS GENERAL_FL=BUILDING STORY 7_SCHG SPACE FUNCTION DWELLING UNITS GENERAL PEOPLE,NECB-G-OCCUPANCY,DU_BT=SPACE FUNCTION_ST=DWELLING UNITS GENERAL_FL=BUILDING STORY 7_SCHG,88.25,3.5,3.5,4.001E-002,24.991,0.300,0.700,AutoCalculate,NECB-ACTIVITY,No,3.8200E-008,1,3
 People Internal Gains Nominal, DU_BT=SPACE FUNCTION_ST=DWELLING UNITS GENERAL_FL=BUILDING STORY 7_SCHG 1 SPACE FUNCTION DWELLING UNITS GENERAL PEOPLE,NECB-G-OCCUPANCY,DU_BT=SPACE FUNCTION_ST=DWELLING UNITS GENERAL_FL=BUILDING STORY 7_SCHG 1,88.25,3.5,3.5,4.001E-002,24.991,0.300,0.700,AutoCalculate,NECB-ACTIVITY,No,3.8200E-008,1,3
 People Internal Gains Nominal, DU_BT=SPACE FUNCTION_ST=DWELLING UNITS GENERAL_FL=BUILDING STORY 7_SCHG 2 SPACE FUNCTION DWELLING UNITS GENERAL PEOPLE,NECB-G-OCCUPANCY,DU_BT=SPACE FUNCTION_ST=DWELLING UNITS GENERAL_FL=BUILDING STORY 7_SCHG 2,88.25,3.5,3.5,4.001E-002,24.991,0.300,0.700,AutoCalculate,NECB-ACTIVITY,No,3.8200E-008,1,3
 People Internal Gains Nominal, DU_BT=SPACE FUNCTION_ST=DWELLING UNITS GENERAL_FL=BUILDING STORY 7_SCHG 3 SPACE FUNCTION DWELLING UNITS GENERAL PEOPLE,NECB-G-OCCUPANCY,DU_BT=SPACE FUNCTION_ST=DWELLING UNITS GENERAL_FL=BUILDING STORY 7_SCHG 3,88.25,3.5,3.5,4.001E-002,24.991,0.300,0.700,AutoCalculate,NECB-ACTIVITY,No,3.8200E-008,1,3
 People Internal Gains Nominal, DU_BT=SPACE FUNCTION_ST=DWELLING UNITS GENERAL_FL=BUILDING STORY 7_SCHG 4 SPACE FUNCTION DWELLING UNITS GENERAL PEOPLE,NECB-G-OCCUPANCY,DU_BT=SPACE FUNCTION_ST=DWELLING UNITS GENERAL_FL=BUILDING STORY 7_SCHG 4,88.25,3.5,3.5,4.001E-002,24.991,0.300,0.700,AutoCalculate,NECB-ACTIVITY,No,3.8200E-008,1,3
 People Internal Gains Nominal, DU_BT=SPACE FUNCTION_ST=DWELLING UNITS GENERAL_FL=BUILDING STORY 7_SCHG 5 SPACE FUNCTION DWELLING UNITS GENERAL PEOPLE,NECB-G-OCCUPANCY,DU_BT=SPACE FUNCTION_ST=DWELLING UNITS GENERAL_FL=BUILDING STORY 7_SCHG 5,88.25,3.5,3.5,4.001E-002,24.991,0.300,0.700,AutoCalculate,NECB-ACTIVITY,No,3.8200E-008,1,3
 People Internal Gains Nominal, DU_BT=SPACE FUNCTION_ST=DWELLING UNITS GENERAL_FL=BUILDING STORY 7_SCHG 6 SPACE FUNCTION DWELLING UNITS GENERAL PEOPLE,NECB-G-OCCUPANCY,DU_BT=SPACE FUNCTION_ST=DWELLING UNITS GENERAL_FL=BUILDING STORY 7_SCHG 6,88.25,3.5,3.5,4.001E-002,24.991,0.300,0.700,AutoCalculate,NECB-ACTIVITY,No,3.8200E-008,1,3
 People Internal Gains Nominal, DU_BT=SPACE FUNCTION_ST=DWELLING UNITS GENERAL_FL=BUILDING STORY 7_SCHG 7 SPACE FUNCTION DWELLING UNITS GENERAL PEOPLE,NECB-G-OCCUPANCY,DU_BT=SPACE FUNCTION_ST=DWELLING UNITS GENERAL_FL=BUILDING STORY 7_SCHG 7,88.25,3.5,3.5,4.001E-002,24.991,0.300,0.700,AutoCalculate,NECB-ACTIVITY,No,3.8200E-008,1,3
 People Internal Gains Nominal, DU_BT=SPACE FUNCTION_ST=DWELLING UNITS GENERAL_FL=BUILDING STORY 8_SCHG SPACE FUNCTION DWELLING UNITS GENERAL PEOPLE,NECB-G-OCCUPANCY,DU_BT=SPACE FUNCTION_ST=DWELLING UNITS GENERAL_FL=BUILDING STORY 8_SCHG,88.25,3.5,3.5,4.001E-002,24.991,0.300,0.700,AutoCalculate,NECB-ACTIVITY,No,3.8200E-008,1,3
 People Internal Gains Nominal, DU_BT=SPACE FUNCTION_ST=DWELLING UNITS GENERAL_FL=BUILDING STORY 8_SCHG 1 SPACE FUNCTION DWELLING UNITS GENERAL PEOPLE,NECB-G-OCCUPANCY,DU_BT=SPACE FUNCTION_ST=DWELLING UNITS GENERAL_FL=BUILDING STORY 8_SCHG 1,88.25,3.5,3.5,4.001E-002,24.991,0.300,0.700,AutoCalculate,NECB-ACTIVITY,No,3.8200E-008,1,3
 People Internal Gains Nominal, DU_BT=SPACE FUNCTION_ST=DWELLING UNITS GENERAL_FL=BUILDING STORY 8_SCHG 2 SPACE FUNCTION DWELLING UNITS GENERAL PEOPLE,NECB-G-OCCUPANCY,DU_BT=SPACE FUNCTION_ST=DWELLING UNITS GENERAL_FL=BUILDING STORY 8_SCHG 2,88.25,3.5,3.5,4.001E-002,24.991,0.300,0.700,AutoCalculate,NECB-ACTIVITY,No,3.8200E-008,1,3
 People Internal Gains Nominal, DU_BT=SPACE FUNCTION_ST=DWELLING UNITS GENERAL_FL=BUILDING STORY 8_SCHG 3 SPACE FUNCTION DWELLING UNITS GENERAL PEOPLE,NECB-G-OCCUPANCY,DU_BT=SPACE FUNCTION_ST=DWELLING UNITS GENERAL_FL=BUILDING STORY 8_SCHG 3,88.25,3.5,3.5,4.001E-002,24.991,0.300,0.700,AutoCalculate,NECB-ACTIVITY,No,3.8200E-008,1,3
 People Internal Gains Nominal, DU_BT=SPACE FUNCTION_ST=DWELLING UNITS GENERAL_FL=BUILDING STORY 8_SCHG 4 SPACE FUNCTION DWELLING UNITS GENERAL PEOPLE,NECB-G-OCCUPANCY,DU_BT=SPACE FUNCTION_ST=DWELLING UNITS GENERAL_FL=BUILDING STORY 8_SCHG 4,88.25,3.5,3.5,4.001E-002,24.991,0.300,0.700,AutoCalculate,NECB-ACTIVITY,No,3.8200E-008,1,3
 People Internal Gains Nominal, DU_BT=SPACE FUNCTION_ST=DWELLING UNITS GENERAL_FL=BUILDING STORY 8_SCHG 5 SPACE FUNCTION DWELLING UNITS GENERAL PEOPLE,NECB-G-OCCUPANCY,DU_BT=SPACE FUNCTION_ST=DWELLING UNITS GENERAL_FL=BUILDING STORY 8_SCHG 5,88.25,3.5,3.5,4.001E-002,24.991,0.300,0.700,AutoCalculate,NECB-ACTIVITY,No,3.8200E-008,1,3
 People Internal Gains Nominal, DU_BT=SPACE FUNCTION_ST=DWELLING UNITS GENERAL_FL=BUILDING STORY 8_SCHG 6 SPACE FUNCTION DWELLING UNITS GENERAL PEOPLE,NECB-G-OCCUPANCY,DU_BT=SPACE FUNCTION_ST=DWELLING UNITS GENERAL_FL=BUILDING STORY 8_SCHG 6,88.25,3.5,3.5,4.001E-002,24.991,0.300,0.700,AutoCalculate,NECB-ACTIVITY,No,3.8200E-008,1,3
 People Internal Gains Nominal, DU_BT=SPACE FUNCTION_ST=DWELLING UNITS GENERAL_FL=BUILDING STORY 8_SCHG 7 SPACE FUNCTION DWELLING UNITS GENERAL PEOPLE,NECB-G-OCCUPANCY,DU_BT=SPACE FUNCTION_ST=DWELLING UNITS GENERAL_FL=BUILDING STORY 8_SCHG 7,88.25,3.5,3.5,4.001E-002,24.991,0.300,0.700,AutoCalculate,NECB-ACTIVITY,No,3.8200E-008,1,3
 People Internal Gains Nominal, DU_BT=SPACE FUNCTION_ST=DWELLING UNITS GENERAL_FL=BUILDING STORY 9_SCHG SPACE FUNCTION DWELLING UNITS GENERAL PEOPLE,NECB-G-OCCUPANCY,DU_BT=SPACE FUNCTION_ST=DWELLING UNITS GENERAL_FL=BUILDING STORY 9_SCHG,88.25,3.5,3.5,4.001E-002,24.991,0.300,0.700,AutoCalculate,NECB-ACTIVITY,No,3.8200E-008,1,3
 People Internal Gains Nominal, DU_BT=SPACE FUNCTION_ST=DWELLING UNITS GENERAL_FL=BUILDING STORY 9_SCHG 1 SPACE FUNCTION DWELLING UNITS GENERAL PEOPLE,NECB-G-OCCUPANCY,DU_BT=SPACE FUNCTION_ST=DWELLING UNITS GENERAL_FL=BUILDING STORY 9_SCHG 1,88.25,3.5,3.5,4.001E-002,24.991,0.300,0.700,AutoCalculate,NECB-ACTIVITY,No,3.8200E-008,1,3
 People Internal Gains Nominal, DU_BT=SPACE FUNCTION_ST=DWELLING UNITS GENERAL_FL=BUILDING STORY 9_SCHG 2 SPACE FUNCTION DWELLING UNITS GENERAL PEOPLE,NECB-G-OCCUPANCY,DU_BT=SPACE FUNCTION_ST=DWELLING UNITS GENERAL_FL=BUILDING STORY 9_SCHG 2,88.25,3.5,3.5,4.001E-002,24.991,0.300,0.700,AutoCalculate,NECB-ACTIVITY,No,3.8200E-008,1,3
 People Internal Gains Nominal, DU_BT=SPACE FUNCTION_ST=DWELLING UNITS GENERAL_FL=BUILDING STORY 9_SCHG 3 SPACE FUNCTION DWELLING UNITS GENERAL PEOPLE,NECB-G-OCCUPANCY,DU_BT=SPACE FUNCTION_ST=DWELLING UNITS GENERAL_FL=BUILDING STORY 9_SCHG 3,88.25,3.5,3.5,4.001E-002,24.991,0.300,0.700,AutoCalculate,NECB-ACTIVITY,No,3.8200E-008,1,3
 People Internal Gains Nominal, DU_BT=SPACE FUNCTION_ST=DWELLING UNITS GENERAL_FL=BUILDING STORY 9_SCHG 4 SPACE FUNCTION DWELLING UNITS GENERAL PEOPLE,NECB-G-OCCUPANCY,DU_BT=SPACE FUNCTION_ST=DWELLING UNITS GENERAL_FL=BUILDING STORY 9_SCHG 4,88.25,3.5,3.5,4.001E-002,24.991,0.300,0.700,AutoCalculate,NECB-ACTIVITY,No,3.8200E-008,1,3
 People Internal Gains Nominal, DU_BT=SPACE FUNCTION_ST=DWELLING UNITS GENERAL_FL=BUILDING STORY 9_SCHG 5 SPACE FUNCTION DWELLING UNITS GENERAL PEOPLE,NECB-G-OCCUPANCY,DU_BT=SPACE FUNCTION_ST=DWELLING UNITS GENERAL_FL=BUILDING STORY 9_SCHG 5,88.25,3.5,3.5,4.001E-002,24.991,0.300,0.700,AutoCalculate,NECB-ACTIVITY,No,3.8200E-008,1,3
 People Internal Gains Nominal, DU_BT=SPACE FUNCTION_ST=DWELLING UNITS GENERAL_FL=BUILDING STORY 9_SCHG 6 SPACE FUNCTION DWELLING UNITS GENERAL PEOPLE,NECB-G-OCCUPANCY,DU_BT=SPACE FUNCTION_ST=DWELLING UNITS GENERAL_FL=BUILDING STORY 9_SCHG 6,88.25,3.5,3.5,4.001E-002,24.991,0.300,0.700,AutoCalculate,NECB-ACTIVITY,No,3.8200E-008,1,3
 People Internal Gains Nominal, DU_BT=SPACE FUNCTION_ST=DWELLING UNITS GENERAL_FL=BUILDING STORY 9_SCHG 7 SPACE FUNCTION DWELLING UNITS GENERAL PEOPLE,NECB-G-OCCUPANCY,DU_BT=SPACE FUNCTION_ST=DWELLING UNITS GENERAL_FL=BUILDING STORY 9_SCHG 7,88.25,3.5,3.5,4.001E-002,24.991,0.300,0.700,AutoCalculate,NECB-ACTIVITY,No,3.8200E-008,1,3
 People Internal Gains Nominal, ALL_ST=OFFICE ENCLOSED <= 25 M2_FL=BUILDING STORY 1_SCH=A SPACE FUNCTION OFFICE ENCLOSED <= 25 M2 PEOPLE,NECB-A-OCCUPANCY,ALL_ST=OFFICE ENCLOSED <= 25 M2_FL=BUILDING STORY 1_SCH=A,88.25,4.4,4.4,5.002E-002,19.993,0.300,0.700,AutoCalculate,NECB-ACTIVITY,No,3.8200E-008,0,4
! <Lights Internal Gains Nominal>,Name,Schedule Name,Zone Name,Zone Floor Area {m2},# Zone Occupants,Lighting Level {W},Lights/Floor Area {W/m2},Lights per person {W/person},Fraction Return Air,Fraction Radiant,Fraction Short Wave,Fraction Convected,Fraction Replaceable,End-Use Category,Nominal Minimum Lighting Level {W},Nominal Maximum Lighting Level {W}
 Lights Internal Gains Nominal, WILD_ST=CORRIDOR/TRANSITION AREA OTHER-SCH-G_FL=BUILDING STORY 10_SCH=G SPACE FUNCTION CORRIDOR/TRANSITION AREA OTHER-SCH-G LIGHTS 85.0 PERCENT REDUCTION,NECB-G-LIGHTING,WILD_ST=CORRIDOR/TRANSITION AREA OTHER-SCH-G_FL=BUILDING STORY 10_SCH=G,77.66,0.8,136.679,1.760,175.936,0.000,0.500,0.200,0.300,1.000,General,0.000,123.011
 Lights Internal Gains Nominal, WILD_ST=CORRIDOR/TRANSITION AREA OTHER-SCH-G_FL=BUILDING STORY 1_SCH=G SPACE FUNCTION CORRIDOR/TRANSITION AREA OTHER-SCH-G LIGHTS 85.0 PERCENT REDUCTION,NECB-G-LIGHTING,WILD_ST=CORRIDOR/TRANSITION AREA OTHER-SCH-G_FL=BUILDING STORY 1_SCH=G,77.66,0.8,136.679,1.760,175.936,0.000,0.500,0.200,0.300,1.000,General,0.000,123.011
 Lights Internal Gains Nominal, WILD_ST=CORRIDOR/TRANSITION AREA OTHER-SCH-G_FL=BUILDING STORY 2_SCH=G SPACE FUNCTION CORRIDOR/TRANSITION AREA OTHER-SCH-G LIGHTS 85.0 PERCENT REDUCTION,NECB-G-LIGHTING,WILD_ST=CORRIDOR/TRANSITION AREA OTHER-SCH-G_FL=BUILDING STORY 2_SCH=G,77.66,0.8,136.679,1.760,175.936,0.000,0.500,0.200,0.300,1.000,General,0.000,123.011
 Lights Internal Gains Nominal, WILD_ST=CORRIDOR/TRANSITION AREA OTHER-SCH-G_FL=BUILDING STORY 3_SCH=G SPACE FUNCTION CORRIDOR/TRANSITION AREA OTHER-SCH-G LIGHTS 85.0 PERCENT REDUCTION,NECB-G-LIGHTING,WILD_ST=CORRIDOR/TRANSITION AREA OTHER-SCH-G_FL=BUILDING STORY 3_SCH=G,77.66,0.8,136.679,1.760,175.936,0.000,0.500,0.200,0.300,1.000,General,0.000,123.011
 Lights Internal Gains Nominal, WILD_ST=CORRIDOR/TRANSITION AREA OTHER-SCH-G_FL=BUILDING STORY 4_SCH=G SPACE FUNCTION CORRIDOR/TRANSITION AREA OTHER-SCH-G LIGHTS 85.0 PERCENT REDUCTION,NECB-G-LIGHTING,WILD_ST=CORRIDOR/TRANSITION AREA OTHER-SCH-G_FL=BUILDING STORY 4_SCH=G,77.66,0.8,136.679,1.760,175.936,0.000,0.500,0.200,0.300,1.000,General,0.000,123.011
 Lights Internal Gains Nominal, WILD_ST=CORRIDOR/TRANSITION AREA OTHER-SCH-G_FL=BUILDING STORY 5_SCH=G SPACE FUNCTION CORRIDOR/TRANSITION AREA OTHER-SCH-G LIGHTS 85.0 PERCENT REDUCTION,NECB-G-LIGHTING,WILD_ST=CORRIDOR/TRANSITION AREA OTHER-SCH-G_FL=BUILDING STORY 5_SCH=G,77.66,0.8,136.679,1.760,175.936,0.000,0.500,0.200,0.300,1.000,General,0.000,123.011
 Lights Internal Gains Nominal, WILD_ST=CORRIDOR/TRANSITION AREA OTHER-SCH-G_FL=BUILDING STORY 6_SCH=G SPACE FUNCTION CORRIDOR/TRANSITION AREA OTHER-SCH-G LIGHTS 85.0 PERCENT REDUCTION,NECB-G-LIGHTING,WILD_ST=CORRIDOR/TRANSITION AREA OTHER-SCH-G_FL=BUILDING STORY 6_SCH=G,77.66,0.8,136.679,1.760,175.936,0.000,0.500,0.200,0.300,1.000,General,0.000,123.011
 Lights Internal Gains Nominal, WILD_ST=CORRIDOR/TRANSITION AREA OTHER-SCH-G_FL=BUILDING STORY 7_SCH=G SPACE FUNCTION CORRIDOR/TRANSITION AREA OTHER-SCH-G LIGHTS 85.0 PERCENT REDUCTION,NECB-G-LIGHTING,WILD_ST=CORRIDOR/TRANSITION AREA OTHER-SCH-G_FL=BUILDING STORY 7_SCH=G,77.66,0.8,136.679,1.760,175.936,0.000,0.500,0.200,0.300,1.000,General,0.000,123.011
 Lights Internal Gains Nominal, WILD_ST=CORRIDOR/TRANSITION AREA OTHER-SCH-G_FL=BUILDING STORY 8_SCH=G SPACE FUNCTION CORRIDOR/TRANSITION AREA OTHER-SCH-G LIGHTS 85.0 PERCENT REDUCTION,NECB-G-LIGHTING,WILD_ST=CORRIDOR/TRANSITION AREA OTHER-SCH-G_FL=BUILDING STORY 8_SCH=G,77.66,0.8,136.679,1.760,175.936,0.000,0.500,0.200,0.300,1.000,General,0.000,123.011
 Lights Internal Gains Nominal, WILD_ST=CORRIDOR/TRANSITION AREA OTHER-SCH-G_FL=BUILDING STORY 9_SCH=G SPACE FUNCTION CORRIDOR/TRANSITION AREA OTHER-SCH-G LIGHTS 85.0 PERCENT REDUCTION,NECB-G-LIGHTING,WILD_ST=CORRIDOR/TRANSITION AREA OTHER-SCH-G_FL=BUILDING STORY 9_SCH=G,77.66,0.8,136.679,1.760,175.936,0.000,0.500,0.200,0.300,1.000,General,0.000,123.011
 Lights Internal Gains Nominal, DU_BT=SPACE FUNCTION_ST=DWELLING UNITS GENERAL_FL=BUILDING STORY 10_SCHG SPACE FUNCTION DWELLING UNITS GENERAL LIGHTS 85.0 PERCENT REDUCTION,NECB-G-LIGHTING,DU_BT=SPACE FUNCTION_ST=DWELLING UNITS GENERAL_FL=BUILDING STORY 10_SCHG,88.25,3.5,176.497,2.000,49.982,0.000,0.500,0.200,0.300,1.000,General,0.000,158.848
 Lights Internal Gains Nominal, DU_BT=SPACE FUNCTION_ST=DWELLING UNITS GENERAL_FL=BUILDING STORY 10_SCHG 1 SPACE FUNCTION DWELLING UNITS GENERAL LIGHTS 85.0 PERCENT REDUCTION,NECB-G-LIGHTING,DU_BT=SPACE FUNCTION_ST=DWELLING UNITS GENERAL_FL=BUILDING STORY 10_SCHG 1,88.25,3.5,176.497,2.000,49.982,0.000,0.500,0.200,0.300,1.000,General,0.000,158.848
 Lights Internal Gains Nominal, DU_BT=SPACE FUNCTION_ST=DWELLING UNITS GENERAL_FL=BUILDING STORY 10_SCHG 2 SPACE FUNCTION DWELLING UNITS GENERAL LIGHTS 85.0 PERCENT REDUCTION,NECB-G-LIGHTING,DU_BT=SPACE FUNCTION_ST=DWELLING UNITS GENERAL_FL=BUILDING STORY 10_SCHG 2,88.25,3.5,176.497,2.000,49.982,0.000,0.500,0.200,0.300,1.000,General,0.000,158.848
 Lights Internal Gains Nominal, DU_BT=SPACE FUNCTION_ST=DWELLING UNITS GENERAL_FL=BUILDING STORY 10_SCHG 3 SPACE FUNCTION DWELLING UNITS GENERAL LIGHTS 85.0 PERCENT REDUCTION,NECB-G-LIGHTING,DU_BT=SPACE FUNCTION_ST=DWELLING UNITS GENERAL_FL=BUILDING STORY 10_SCHG 3,88.25,3.5,176.497,2.000,49.982,0.000,0.500,0.200,0.300,1.000,General,0.000,158.848
 Lights Internal Gains Nominal, DU_BT=SPACE FUNCTION_ST=DWELLING UNITS GENERAL_FL=BUILDING STORY 10_SCHG 4 SPACE FUNCTION DWELLING UNITS GENERAL LIGHTS 85.0 PERCENT REDUCTION,NECB-G-LIGHTING,DU_BT=SPACE FUNCTION_ST=DWELLING UNITS GENERAL_FL=BUILDING STORY 10_SCHG 4,88.25,3.5,176.497,2.000,49.982,0.000,0.500,0.200,0.300,1.000,General,0.000,158.848
[...]
 Component Sizing Information, Pump:ConstantSpeed, SERVICE WATER LOOP PUMP, Design Flow Rate [m3/s], 7.42670E-004
 Component Sizing Information, Pump:ConstantSpeed, SERVICE WATER LOOP PUMP, Design Power Consumption [W], 646.50476
 Component Sizing Information, WaterHeater:Mixed, 704GAL ELECTRICITY WATER HEATER - 475KBTU/HR 1.0 THERM EFF, Use Side Design Flow Rate [m3/s], 7.42670E-004
! <Environment>,Environment Name,Environment Type, Start Date, End Date, Start DayOfWeek, Duration {#days}, Source:Start DayOfWeek,  Use Daylight Saving, Use Holidays, Apply Weekend Holiday Rule,  Use Rain Values, Use Snow Values
! <Environment:Special Days>, Special Day Name, Special Day Type, Source, Start Date, Duration {#days}
! <Environment:Daylight Saving>, Daylight Saving Indicator, Source, Start Date, End Date
! <Environment:WarmupDays>, NumberofWarmupDays
Environment,RUN PERIOD 1,WeatherFileRunPeriod,01/01,12/31,Sunday,365,Use RunPeriod Specified Day,No,No,No,Yes,Yes
Environment:Daylight Saving,No,RunPeriod Object
Environment:WarmupDays,  6
! <Tabular Report>,Style,Unit Conversion
Tabular Report,HTML,None
! <Warmup Convergence Information>,Zone Name,Environment Type/Name,Average Warmup Temperature Difference {deltaC},Std Dev Warmup Temperature Difference {deltaC},Max Temperature Pass/Fail Convergence,Min Temperature Pass/Fail Convergence,Average Warmup Load Difference {W},Std Dev Warmup Load Difference {W},Heating Load Pass/Fail Convergence,Cooling Load Pass/Fail Convergence
 Warmup Convergence Information,ALL_ST=OFFICE ENCLOSED <= 25 M2_FL=BUILDING STORY 1_SCH=A,RunPeriod: RUN PERIOD 1,0.2353334738,0.2778193904,Pass,Pass,0.8447859796,1.7423765305,Pass,Pass
 Warmup Convergence Information,DU_BT=SPACE FUNCTION_ST=DWELLING UNITS GENERAL_FL=BUILDING STORY 10_SCHG,RunPeriod: RUN PERIOD 1,0.3339962529,0.8446019495,Pass,Pass,0.7350750547,1.4441884790,Pass,Pass
 Warmup Convergence Information,DU_BT=SPACE FUNCTION_ST=DWELLING UNITS GENERAL_FL=BUILDING STORY 10_SCHG 1,RunPeriod: RUN PERIOD 1,0.3337382753,0.8527670907,Pass,Pass,0.9394038050,2.4723207212,Pass,Pass
 Warmup Convergence Information,DU_BT=SPACE FUNCTION_ST=DWELLING UNITS GENERAL_FL=BUILDING STORY 10_SCHG 2,RunPeriod: RUN PERIOD 1,0.3339583350,0.8485244901,Pass,Pass,0.4322899211,0.5944035096,Pass,Pass
 Warmup Convergence Information,DU_BT=SPACE FUNCTION_ST=DWELLING UNITS GENERAL_FL=BUILDING STORY 10_SCHG 3,RunPeriod: RUN PERIOD 1,0.3339923106,0.8447289618,Pass,Pass,0.7168357431,1.3340929962,Pass,Pass
 Warmup Convergence Information,DU_BT=SPACE FUNCTION_ST=DWELLING UNITS GENERAL_FL=BUILDING STORY 10_SCHG 4,RunPeriod: RUN PERIOD 1,0.3338352813,0.8509910169,Pass,Pass,2.7255666250,10.5713397464,Pass,Pass
 Warmup Convergence Information,DU_BT=SPACE FUNCTION_ST=DWELLING UNITS GENERAL_FL=BUILDING STORY 10_SCHG 5,RunPeriod: RUN PERIOD 1,0.3336735136,0.8260830999,Pass,Pass,0.6814628272,1.0355751017,Pass,Pass
 Warmup Convergence Information,DU_BT=SPACE FUNCTION_ST=DWELLING UNITS GENERAL_FL=BUILDING STORY 10_SCHG 6,RunPeriod: RUN PERIOD 1,0.3339633453,0.8484132387,Pass,Pass,0.4279054548,0.5792741092,Pass,Pass
 Warmup Convergence Information,DU_BT=SPACE FUNCTION_ST=DWELLING UNITS GENERAL_FL=BUILDING STORY 10_SCHG 7,RunPeriod: RUN PERIOD 1,0.3338088591,0.8491442818,Pass,Pass,1.1765683362,2.3623796027,Pass,Pass
 Warmup Convergence Information,DU_BT=SPACE FUNCTION_ST=DWELLING UNITS GENERAL_FL=BUILDING STORY 1_SCHG,RunPeriod: RUN PERIOD 1,0.4529959129,0.8349821354,Pass,Pass,0.2710590077,0.3499135127,Pass,Pass
 Warmup Convergence Information,DU_BT=SPACE FUNCTION_ST=DWELLING UNITS GENERAL_FL=BUILDING STORY 1_SCHG 1,RunPeriod: RUN PERIOD 1,0.4183154030,0.8018558020,Pass,Pass,3.2122897632,13.2952161559,Pass,Pass
 Warmup Convergence Information,DU_BT=SPACE FUNCTION_ST=DWELLING UNITS GENERAL_FL=BUILDING STORY 1_SCHG 2,RunPeriod: RUN PERIOD 1,0.5557537714,0.8285308521,Pass,Pass,0.4193159222,1.0194478579,Pass,Pass
 Warmup Convergence Information,DU_BT=SPACE FUNCTION_ST=DWELLING UNITS GENERAL_FL=BUILDING STORY 1_SCHG 3,RunPeriod: RUN PERIOD 1,0.4651467591,0.7823567782,Pass,Pass,1.0485557411,2.0999570132,Pass,Pass
 Warmup Convergence Information,DU_BT=SPACE FUNCTION_ST=DWELLING UNITS GENERAL_FL=BUILDING STORY 1_SCHG 4,RunPeriod: RUN PERIOD 1,0.4456496502,0.8237370301,Pass,Pass,0.5406254944,0.8128953812,Pass,Pass
 Warmup Convergence Information,DU_BT=SPACE FUNCTION_ST=DWELLING UNITS GENERAL_FL=BUILDING STORY 1_SCHG 5,RunPeriod: RUN PERIOD 1,0.5554416064,0.8264760110,Pass,Pass,0.4134603495,0.9925381678,Pass,Pass
 Warmup Convergence Information,DU_BT=SPACE FUNCTION_ST=DWELLING UNITS GENERAL_FL=BUILDING STORY 1_SCHG 6,RunPeriod: RUN PERIOD 1,0.4696696042,0.7825099482,Pass,Pass,0.6250985322,0.8398040486,Pass,Pass
 Warmup Convergence Information,DU_BT=SPACE FUNCTION_ST=DWELLING UNITS GENERAL_FL=BUILDING STORY 2_SCHG,RunPeriod: RUN PERIOD 1,0.5742285436,0.8458458825,Pass,Pass,0.3086048329,0.6198944825,Pass,Pass
 Warmup Convergence Information,DU_BT=SPACE FUNCTION_ST=DWELLING UNITS GENERAL_FL=BUILDING STORY 2_SCHG 1,RunPeriod: RUN PERIOD 1,0.4198183888,0.7745294197,Pass,Pass,0.4975980029,0.9353297874,Pass,Pass
 Warmup Convergence Information,DU_BT=SPACE FUNCTION_ST=DWELLING UNITS GENERAL_FL=BUILDING STORY 2_SCHG 2,RunPeriod: RUN PERIOD 1,0.4524071331,0.8167697692,Pass,Pass,0.9888797356,2.4497260053,Pass,Pass
 Warmup Convergence Information,DU_BT=SPACE FUNCTION_ST=DWELLING UNITS GENERAL_FL=BUILDING STORY 2_SCHG 3,RunPeriod: RUN PERIOD 1,0.4139719033,0.7754909767,Pass,Pass,0.4887855624,1.0192884599,Pass,Pass
 Warmup Convergence Information,DU_BT=SPACE FUNCTION_ST=DWELLING UNITS GENERAL_FL=BUILDING STORY 2_SCHG 4,RunPeriod: RUN PERIOD 1,0.4659462981,0.8336585462,Pass,Pass,0.3008325129,0.4504943576,Pass,Pass
 Warmup Convergence Information,DU_BT=SPACE FUNCTION_ST=DWELLING UNITS GENERAL_FL=BUILDING STORY 2_SCHG 5,RunPeriod: RUN PERIOD 1,0.5742767003,0.8464864390,Pass,Pass,0.3110865510,0.6304961569,Pass,Pass
 Warmup Convergence Information,DU_BT=SPACE FUNCTION_ST=DWELLING UNITS GENERAL_FL=BUILDING STORY 2_SCHG 6,RunPeriod: RUN PERIOD 1,0.4239643885,0.7973786222,Pass,Pass,1.2536411791,2.6469062500,Pass,Pass
 Warmup Convergence Information,DU_BT=SPACE FUNCTION_ST=DWELLING UNITS GENERAL_FL=BUILDING STORY 2_SCHG 7,RunPeriod: RUN PERIOD 1,0.4095974376,0.8083526911,Pass,Pass,0.8101609243,1.1881742738,Pass,Pass
 Warmup Convergence Information,DU_BT=SPACE FUNCTION_ST=DWELLING UNITS GENERAL_FL=BUILDING STORY 3_SCHG,RunPeriod: RUN PERIOD 1,0.4199468788,0.7993200561,Pass,Pass,0.8576196719,1.2468235558,Pass,Pass
 Warmup Convergence Information,DU_BT=SPACE FUNCTION_ST=DWELLING UNITS GENERAL_FL=BUILDING STORY 3_SCHG 1,RunPeriod: RUN PERIOD 1,0.4182063685,0.7722594644,Pass,Pass,0.4878456950,1.0708116118,Pass,Pass
 Warmup Convergence Information,DU_BT=SPACE FUNCTION_ST=DWELLING UNITS GENERAL_FL=BUILDING STORY 3_SCHG 2,RunPeriod: RUN PERIOD 1,0.4167767256,0.7736148717,Pass,Pass,0.4817833104,1.1120071938,Pass,Pass
 Warmup Convergence Information,DU_BT=SPACE FUNCTION_ST=DWELLING UNITS GENERAL_FL=BUILDING STORY 3_SCHG 3,RunPeriod: RUN PERIOD 1,0.4106464174,0.8047003941,Pass,Pass,0.5996494426,0.6416269718,Pass,Pass
 Warmup Convergence Information,DU_BT=SPACE FUNCTION_ST=DWELLING UNITS GENERAL_FL=BUILDING STORY 3_SCHG 4,RunPeriod: RUN PERIOD 1,0.4544869500,0.8180437310,Pass,Pass,0.6723741122,1.1749717618,Pass,Pass
 Warmup Convergence Information,DU_BT=SPACE FUNCTION_ST=DWELLING UNITS GENERAL_FL=BUILDING STORY 3_SCHG 5,RunPeriod: RUN PERIOD 1,0.4709323950,0.8347595196,Pass,Pass,0.2935934004,0.4405315254,Pass,Pass
 Warmup Convergence Information,DU_BT=SPACE FUNCTION_ST=DWELLING UNITS GENERAL_FL=BUILDING STORY 3_SCHG 6,RunPeriod: RUN PERIOD 1,0.5768571443,0.8533866083,Pass,Pass,0.3067259512,0.6168374502,Pass,Pass
 Warmup Convergence Information,DU_BT=SPACE FUNCTION_ST=DWELLING UNITS GENERAL_FL=BUILDING STORY 3_SCHG 7,RunPeriod: RUN PERIOD 1,0.5753781252,0.8523046021,Pass,Pass,0.3055277390,0.6066161488,Pass,Pass
 Warmup Convergence Information,DU_BT=SPACE FUNCTION_ST=DWELLING UNITS GENERAL_FL=BUILDING STORY 4_SCHG,RunPeriod: RUN PERIOD 1,0.4092718447,0.8049125149,Pass,Pass,0.8311688818,1.4846560052,Pass,Pass
 Warmup Convergence Information,DU_BT=SPACE FUNCTION_ST=DWELLING UNITS GENERAL_FL=BUILDING STORY 4_SCHG 1,RunPeriod: RUN PERIOD 1,0.4688423351,0.8329836929,Pass,Pass,0.2802343509,0.4135887483,Pass,Pass
 Warmup Convergence Information,DU_BT=SPACE FUNCTION_ST=DWELLING UNITS GENERAL_FL=BUILDING STORY 4_SCHG 2,RunPeriod: RUN PERIOD 1,0.4177232014,0.8006622787,Pass,Pass,0.8192162259,1.1282785746,Pass,Pass
 Warmup Convergence Information,DU_BT=SPACE FUNCTION_ST=DWELLING UNITS GENERAL_FL=BUILDING STORY 4_SCHG 3,RunPeriod: RUN PERIOD 1,0.4169246931,0.7731269958,Pass,Pass,0.4821865056,1.0718212368,Pass,Pass
 Warmup Convergence Information,DU_BT=SPACE FUNCTION_ST=DWELLING UNITS GENERAL_FL=BUILDING STORY 4_SCHG 4,RunPeriod: RUN PERIOD 1,0.4523782179,0.8165424766,Pass,Pass,0.4979995409,0.6156173201,Pass,Pass
 Warmup Convergence Information,DU_BT=SPACE FUNCTION_ST=DWELLING UNITS GENERAL_FL=BUILDING STORY 4_SCHG 5,RunPeriod: RUN PERIOD 1,0.5774134170,0.8555557953,Pass,Pass,0.3247445189,0.6849913624,Pass,Pass
 Warmup Convergence Information,DU_BT=SPACE FUNCTION_ST=DWELLING UNITS GENERAL_FL=BUILDING STORY 4_SCHG 6,RunPeriod: RUN PERIOD 1,0.4165091981,0.7746743204,Pass,Pass,0.4790618126,1.0789719140,Pass,Pass
 Warmup Convergence Information,DU_BT=SPACE FUNCTION_ST=DWELLING UNITS GENERAL_FL=BUILDING STORY 4_SCHG 7,RunPeriod: RUN PERIOD 1,0.5759363667,0.8545054687,Pass,Pass,0.3233245261,0.6738652659,Pass,Pass
 Warmup Convergence Information,DU_BT=SPACE FUNCTION_ST=DWELLING UNITS GENERAL_FL=BUILDING STORY 5_SCHG,RunPeriod: RUN PERIOD 1,0.4077266723,0.8055625668,Pass,Pass,1.0364804682,2.3292557164,Pass,Pass
 Warmup Convergence Information,DU_BT=SPACE FUNCTION_ST=DWELLING UNITS GENERAL_FL=BUILDING STORY 5_SCHG 1,RunPeriod: RUN PERIOD 1,0.5773321402,0.8561522631,Pass,Pass,0.3485631755,0.7784395673,Pass,Pass
 Warmup Convergence Information,DU_BT=SPACE FUNCTION_ST=DWELLING UNITS GENERAL_FL=BUILDING STORY 5_SCHG 2,RunPeriod: RUN PERIOD 1,0.4643656873,0.8299490126,Pass,Pass,0.2697346483,0.3883681160,Pass,Pass
 Warmup Convergence Information,DU_BT=SPACE FUNCTION_ST=DWELLING UNITS GENERAL_FL=BUILDING STORY 5_SCHG 3,RunPeriod: RUN PERIOD 1,0.5763933593,0.8554002218,Pass,Pass,0.3462908607,0.7666496808,Pass,Pass
 Warmup Convergence Information,DU_BT=SPACE FUNCTION_ST=DWELLING UNITS GENERAL_FL=BUILDING STORY 5_SCHG 4,RunPeriod: RUN PERIOD 1,0.4146502301,0.7744376951,Pass,Pass,0.4772263690,1.0547239075,Pass,Pass
 Warmup Convergence Information,DU_BT=SPACE FUNCTION_ST=DWELLING UNITS GENERAL_FL=BUILDING STORY 5_SCHG 5,RunPeriod: RUN PERIOD 1,0.4145510150,0.7760815899,Pass,Pass,0.4742588525,1.0534491618,Pass,Pass
 Warmup Convergence Information,DU_BT=SPACE FUNCTION_ST=DWELLING UNITS GENERAL_FL=BUILDING STORY 5_SCHG 6,RunPeriod: RUN PERIOD 1,0.4494806164,0.8133148065,Pass,Pass,0.4404795391,0.4919572662,Pass,Pass
 Warmup Convergence Information,DU_BT=SPACE FUNCTION_ST=DWELLING UNITS GENERAL_FL=BUILDING STORY 5_SCHG 7,RunPeriod: RUN PERIOD 1,0.4160212650,0.8017148907,Pass,Pass,0.8949410562,1.3663655366,Pass,Pass
 Warmup Convergence Information,DU_BT=SPACE FUNCTION_ST=DWELLING UNITS GENERAL_FL=BUILDING STORY 6_SCHG,RunPeriod: RUN PERIOD 1,0.4456069831,0.8099493603,Pass,Pass,0.4130898596,0.4389945709,Pass,Pass
 Warmup Convergence Information,DU_BT=SPACE FUNCTION_ST=DWELLING UNITS GENERAL_FL=BUILDING STORY 6_SCHG 1,RunPeriod: RUN PERIOD 1,0.5747311412,0.8539539467,Pass,Pass,0.3749382164,0.8790619306,Pass,Pass
 Warmup Convergence Information,DU_BT=SPACE FUNCTION_ST=DWELLING UNITS GENERAL_FL=BUILDING STORY 6_SCHG 2,RunPeriod: RUN PERIOD 1,0.4585630354,0.8259146160,Pass,Pass,0.2613895948,0.3654399425,Pass,Pass
 Warmup Convergence Information,DU_BT=SPACE FUNCTION_ST=DWELLING UNITS GENERAL_FL=BUILDING STORY 6_SCHG 3,RunPeriod: RUN PERIOD 1,0.5745484601,0.8540601895,Pass,Pass,0.3779058164,0.8926874509,Pass,Pass
 Warmup Convergence Information,DU_BT=SPACE FUNCTION_ST=DWELLING UNITS GENERAL_FL=BUILDING STORY 6_SCHG 4,RunPeriod: RUN PERIOD 1,0.4062766098,0.8061973576,Pass,Pass,1.1615307200,2.7931240749,Pass,Pass
 Warmup Convergence Information,DU_BT=SPACE FUNCTION_ST=DWELLING UNITS GENERAL_FL=BUILDING STORY 6_SCHG 5,RunPeriod: RUN PERIOD 1,0.4147354494,0.8024275011,Pass,Pass,0.9940147473,1.7197015941,Pass,Pass
 Warmup Convergence Information,DU_BT=SPACE FUNCTION_ST=DWELLING UNITS GENERAL_FL=BUILDING STORY 6_SCHG 6,RunPeriod: RUN PERIOD 1,0.4109169398,0.7768071472,Pass,Pass,0.4704370213,1.0454682882,Pass,Pass
 Warmup Convergence Information,DU_BT=SPACE FUNCTION_ST=DWELLING UNITS GENERAL_FL=BUILDING STORY 6_SCHG 7,RunPeriod: RUN PERIOD 1,0.4113256647,0.7758255294,Pass,Pass,0.4719227425,1.0485469775,Pass,Pass
 Warmup Convergence Information,DU_BT=SPACE FUNCTION_ST=DWELLING UNITS GENERAL_FL=BUILDING STORY 7_SCHG,RunPeriod: RUN PERIOD 1,0.5699500636,0.8488686742,Pass,Pass,0.4229434946,1.0679051191,Pass,Pass
 Warmup Convergence Information,DU_BT=SPACE FUNCTION_ST=DWELLING UNITS GENERAL_FL=BUILDING STORY 7_SCHG 1,RunPeriod: RUN PERIOD 1,0.4368146972,0.8096259858,Pass,Pass,0.3923790764,0.4059798697,Pass,Pass
 Warmup Convergence Information,DU_BT=SPACE FUNCTION_ST=DWELLING UNITS GENERAL_FL=BUILDING STORY 7_SCHG 2,RunPeriod: RUN PERIOD 1,0.4041280382,0.7775043357,Pass,Pass,0.4835879311,1.0631477465,Pass,Pass
 Warmup Convergence Information,DU_BT=SPACE FUNCTION_ST=DWELLING UNITS GENERAL_FL=BUILDING STORY 7_SCHG 3,RunPeriod: RUN PERIOD 1,0.4478167734,0.8181636021,Pass,Pass,0.2515204956,0.3346528691,Pass,Pass
 Warmup Convergence Information,DU_BT=SPACE FUNCTION_ST=DWELLING UNITS GENERAL_FL=BUILDING STORY 7_SCHG 4,RunPeriod: RUN PERIOD 1,0.4138652440,0.8029699060,Pass,Pass,1.1088428647,2.2893649362,Pass,Pass
 Warmup Convergence Information,DU_BT=SPACE FUNCTION_ST=DWELLING UNITS GENERAL_FL=BUILDING STORY 7_SCHG 5,RunPeriod: RUN PERIOD 1,0.4040213070,0.8068572773,Pass,Pass,2.9693616181,11.2618576575,Pass,Pass
 Warmup Convergence Information,DU_BT=SPACE FUNCTION_ST=DWELLING UNITS GENERAL_FL=BUILDING STORY 7_SCHG 6,RunPeriod: RUN PERIOD 1,0.5698680638,0.8491333661,Pass,Pass,0.4264439427,1.0853329333,Pass,Pass
 Warmup Convergence Information,DU_BT=SPACE FUNCTION_ST=DWELLING UNITS GENERAL_FL=BUILDING STORY 7_SCHG 7,RunPeriod: RUN PERIOD 1,0.4042340047,0.7764610913,Pass,Pass,0.4838559051,1.0654806670,Pass,Pass
 Warmup Convergence Information,DU_BT=SPACE FUNCTION_ST=DWELLING UNITS GENERAL_FL=BUILDING STORY 8_SCHG,RunPeriod: RUN PERIOD 1,0.3967495542,0.7769795092,Pass,Pass,0.4625402602,0.8988050625,Pass,Pass
 Warmup Convergence Information,DU_BT=SPACE FUNCTION_ST=DWELLING UNITS GENERAL_FL=BUILDING STORY 8_SCHG 1,RunPeriod: RUN PERIOD 1,0.4174563278,0.8100173875,Pass,Pass,0.3691444363,0.3570903446,Pass,Pass
 Warmup Convergence Information,DU_BT=SPACE FUNCTION_ST=DWELLING UNITS GENERAL_FL=BUILDING STORY 8_SCHG 2,RunPeriod: RUN PERIOD 1,0.3974844260,0.7777696678,Pass,Pass,0.4609809190,0.8901464909,Pass,Pass
 Warmup Convergence Information,DU_BT=SPACE FUNCTION_ST=DWELLING UNITS GENERAL_FL=BUILDING STORY 8_SCHG 3,RunPeriod: RUN PERIOD 1,0.5571476168,0.8391740198,Pass,Pass,0.6727909157,2.1491594816,Pass,Pass
 Warmup Convergence Information,DU_BT=SPACE FUNCTION_ST=DWELLING UNITS GENERAL_FL=BUILDING STORY 8_SCHG 4,RunPeriod: RUN PERIOD 1,0.4297958979,0.8133049126,Pass,Pass,0.2337490485,0.2818730550,Pass,Pass
 Warmup Convergence Information,DU_BT=SPACE FUNCTION_ST=DWELLING UNITS GENERAL_FL=BUILDING STORY 8_SCHG 5,RunPeriod: RUN PERIOD 1,0.3987581230,0.8079794574,Pass,Pass,1.7410463156,5.1656268616,Pass,Pass
 Warmup Convergence Information,DU_BT=SPACE FUNCTION_ST=DWELLING UNITS GENERAL_FL=BUILDING STORY 8_SCHG 6,RunPeriod: RUN PERIOD 1,0.4132429709,0.8035896234,Pass,Pass,2.1756816159,7.3389343699,Pass,Pass
 Warmup Convergence Information,DU_BT=SPACE FUNCTION_ST=DWELLING UNITS GENERAL_FL=BUILDING STORY 8_SCHG 7,RunPeriod: RUN PERIOD 1,0.5573619673,0.8387462635,Pass,Pass,0.6649227949,2.1092095067,Pass,Pass
 Warmup Convergence Information,DU_BT=SPACE FUNCTION_ST=DWELLING UNITS GENERAL_FL=BUILDING STORY 9_SCHG,RunPeriod: RUN PERIOD 1,0.4686800237,0.8226410199,Pass,Pass,0.7355106366,1.1039527103,Pass,Pass
 Warmup Convergence Information,DU_BT=SPACE FUNCTION_ST=DWELLING UNITS GENERAL_FL=BUILDING STORY 9_SCHG 1,RunPeriod: RUN PERIOD 1,0.3771043822,0.8211957657,Pass,Pass,0.2040441052,0.2201661963,Pass,Pass
 Warmup Convergence Information,DU_BT=SPACE FUNCTION_ST=DWELLING UNITS GENERAL_FL=BUILDING STORY 9_SCHG 2,RunPeriod: RUN PERIOD 1,0.4151114616,0.7970799895,Pass,Pass,0.4935540575,0.6663359562,Pass,Pass
 Warmup Convergence Information,DU_BT=SPACE FUNCTION_ST=DWELLING UNITS GENERAL_FL=BUILDING STORY 9_SCHG 3,RunPeriod: RUN PERIOD 1,0.3996637409,0.8059945176,Pass,Pass,0.8074348474,0.9462776888,Pass,Pass
 Warmup Convergence Information,DU_BT=SPACE FUNCTION_ST=DWELLING UNITS GENERAL_FL=BUILDING STORY 9_SCHG 4,RunPeriod: RUN PERIOD 1,0.3797907743,0.8151377933,Pass,Pass,0.2957938113,0.2799855277,Pass,Pass
 Warmup Convergence Information,DU_BT=SPACE FUNCTION_ST=DWELLING UNITS GENERAL_FL=BUILDING STORY 9_SCHG 5,RunPeriod: RUN PERIOD 1,0.4155592090,0.7975551620,Pass,Pass,0.5002126493,0.6735255221,Pass,Pass
 Warmup Convergence Information,DU_BT=SPACE FUNCTION_ST=DWELLING UNITS GENERAL_FL=BUILDING STORY 9_SCHG 6,RunPeriod: RUN PERIOD 1,0.4681213946,0.8227869448,Pass,Pass,0.7507676892,1.1767222070,Pass,Pass
 Warmup Convergence Information,DU_BT=SPACE FUNCTION_ST=DWELLING UNITS GENERAL_FL=BUILDING STORY 9_SCHG 7,RunPeriod: RUN PERIOD 1,0.3772949416,0.8110188046,Pass,Pass,1.5448099200,3.4709275326,Pass,Pass
 Warmup Convergence Information,WILD_ST=CORRIDOR/TRANSITION AREA OTHER-SCH-G_FL=BUILDING STORY 10_SCH=G,RunPeriod: RUN PERIOD 1,0.3333584314,0.7337414350,Pass,Pass,0.5358259259,0.8408905568,Pass,Pass
 Warmup Convergence Information,WILD_ST=CORRIDOR/TRANSITION AREA OTHER-SCH-G_FL=BUILDING STORY 1_SCH=G,RunPeriod: RUN PERIOD 1,0.4128269446,0.6075186622,Pass,Pass,0.2632834513,0.5461776483,Pass,Pass
 Warmup Convergence Information,WILD_ST=CORRIDOR/TRANSITION AREA OTHER-SCH-G_FL=BUILDING STORY 2_SCH=G,RunPeriod: RUN PERIOD 1,0.4185071611,0.5978058521,Pass,Pass,0.5654542788,1.3672034946,Pass,Pass
 Warmup Convergence Information,WILD_ST=CORRIDOR/TRANSITION AREA OTHER-SCH-G_FL=BUILDING STORY 3_SCH=G,RunPeriod: RUN PERIOD 1,0.4229857646,0.5979976003,Pass,Pass,1.2224180691,2.7144444241,Pass,Pass
 Warmup Convergence Information,WILD_ST=CORRIDOR/TRANSITION AREA OTHER-SCH-G_FL=BUILDING STORY 4_SCH=G,RunPeriod: RUN PERIOD 1,0.4255037764,0.6004051292,Pass,Pass,1.2536535969,2.7999317955,Pass,Pass
 Warmup Convergence Information,WILD_ST=CORRIDOR/TRANSITION AREA OTHER-SCH-G_FL=BUILDING STORY 5_SCH=G,RunPeriod: RUN PERIOD 1,0.4254485711,0.6007438501,Pass,Pass,1.1072609852,2.3260546815,Pass,Pass
 Warmup Convergence Information,WILD_ST=CORRIDOR/TRANSITION AREA OTHER-SCH-G_FL=BUILDING STORY 6_SCH=G,RunPeriod: RUN PERIOD 1,0.4256053431,0.6014292682,Pass,Pass,1.1295649453,2.5898361460,Pass,Pass
 Warmup Convergence Information,WILD_ST=CORRIDOR/TRANSITION AREA OTHER-SCH-G_FL=BUILDING STORY 7_SCH=G,RunPeriod: RUN PERIOD 1,0.4217954890,0.6074232210,Pass,Pass,0.6488154232,1.3767124729,Pass,Pass
 Warmup Convergence Information,WILD_ST=CORRIDOR/TRANSITION AREA OTHER-SCH-G_FL=BUILDING STORY 8_SCH=G,RunPeriod: RUN PERIOD 1,0.4001856178,0.6122559518,Pass,Pass,0.4973019411,0.8498970023,Pass,Pass
 Warmup Convergence Information,WILD_ST=CORRIDOR/TRANSITION AREA OTHER-SCH-G_FL=BUILDING STORY 9_SCH=G,RunPeriod: RUN PERIOD 1,0.3626875625,0.6405481939,Pass,Pass,0.2966098769,0.2707109903,Pass,Pass
! <Program Control Information:Threads/Parallel Sims>, Threading Supported,Maximum Number of Threads, Env Set Threads (OMP_NUM_THREADS), EP Env Set Threads (EP_OMP_NUM_THREADS), IDF Set Threads, Number of Threads Used (Interior Radiant Exchange), Number Nominal Surfaces, Number Parallel Sims
Program Control:Threads/Parallel Sims, No,1, N/A, N/A, N/A, N/A, N/A, N/A
End of Data
