{
   "completed_at" : "20180606T170323Z",
   "completed_status" : "Success",
   "created_at" : "20180606T170238Z",
   "current_step" : 0,
   "eplusout_err" : "Program Version,EnergyPlus, Version 8.9.0-497bb3e71c, YMD=2018.06.06 17:02,\n   ************* Beginning Zone Sizing Calculations\n   ** Warning ** SetUpDesignDay: Entered DesignDay Barometric Pressure=99063 differs by more than 10% from Standard Barometric Pressure=81198.\n   **   ~~~   ** ...occurs in DesignDay=SIZING PERIOD DESIGN DAY 1, Standard Pressure (based on elevation) will be used.\n   ** Warning ** ProcessScheduleInput: Schedule:Day:Interval=\"MEDIUM OFFICE ELECTRIC EQUIPMENT SUMMER DESIGN DAY SCHEDULE\", Blank Schedule Type Limits Name input -- will not be validated.\n   ** Warning ** ProcessScheduleInput: Schedule:Day:Interval=\"MEDIUM OFFICE ELECTRIC EQUIPMENT WINTER DESIGN DAY SCHEDULE\", Blank Schedule Type Limits Name input -- will not be validated.\n   ** Warning ** ProcessScheduleInput: Schedule:Day:Interval=\"MEDIUM OFFICE GAS EQUIPMENT SUMMER DESIGN DAY SCHEDULE\", Blank Schedule Type Limits Name input -- will not be validated.\n   ** Warning ** ProcessScheduleInput: Schedule:Day:Interval=\"MEDIUM OFFICE GAS EQUIPMENT WINTER DESIGN DAY SCHEDULE\", Blank Schedule Type Limits Name input -- will not be validated.\n   ** Warning ** ProcessScheduleInput: Schedule:Day:Interval=\"MEDIUM OFFICE HOT WATER EQUIPMENT SUMMER DESIGN DAY SCHEDULE\", Blank Schedule Type Limits Name input -- will not be validated.\n   ** Warning ** ProcessScheduleInput: Schedule:Day:Interval=\"MEDIUM OFFICE HOT WATER EQUIPMENT WINTER DESIGN DAY SCHEDULE\", Blank Schedule Type Limits Name input -- will not be validated.\n   ** Warning ** ProcessScheduleInput: Schedule:Day:Interval=\"MEDIUM OFFICE INFILTRATION SUMMER DESIGN DAY SCHEDULE\", Blank Schedule Type Limits Name input -- will not be validated.\n   ** Warning ** ProcessScheduleInput: Schedule:Day:Interval=\"MEDIUM OFFICE INFILTRATION WINTER DESIGN DAY SCHEDULE\", Blank Schedule Type Limits Name input -- will not be validated.\n   ** Warning ** ProcessScheduleInput: Schedule:Day:Interval=\"MEDIUM OFFICE LIGHTING SUMMER DESIGN DAY SCHEDULE\", Blank Schedule Type Limits Name input -- will not be validated.\n   ** Warning ** ProcessScheduleInput: Schedule:Day:Interval=\"MEDIUM OFFICE LIGHTING WINTER DESIGN DAY SCHEDULE\", Blank Schedule Type Limits Name input -- will not be validated.\n   ** Warning ** ProcessScheduleInput: Schedule:Day:Interval=\"MEDIUM OFFICE NUMBER OF PEOPLE SUMMER DESIGN DAY SCHEDULE\", Blank Schedule Type Limits Name input -- will not be validated.\n   ** Warning ** ProcessScheduleInput: Schedule:Constant=\"ALWAYS OFF DISCRETE\", Blank Schedule Type Limits Name input -- will not be validated.\n   ** Warning ** ProcessScheduleInput: Schedule:Constant=\"ALWAYS ON CONTINUOUS\", Blank Schedule Type Limits Name input -- will not be validated.\n   ** Warning ** CheckUsedConstructions: There are 4 nominally unused constructions in input.\n   **   ~~~   ** For explicit details on each unused construction, use Output:Diagnostics,DisplayExtraWarnings;\n   ** Warning ** GetDaylightingControls: Fraction of Zone controlled by the Daylighting reference points is < 1.0.\n   **   ~~~   ** ..discovered in \"Daylighting:Controls\" for Zone=\"THERMAL ZONE 1\", only 0.25 of the zone is controlled.\n   ** Warning ** SetUpDesignDay: Entered DesignDay Barometric Pressure=99063 differs by more than 10% from Standard Barometric Pressure=81198.\n   **   ~~~   ** ...occurs in DesignDay=SIZING PERIOD DESIGN DAY 2, Standard Pressure (based on elevation) will be used.\n   ************* Beginning System Sizing Calculations\n   ** Warning ** Since Zone Minimum Air Flow Input Method = CONSTANT, input for Fixed Minimum Air Flow Rate will be ignored.\n   **   ~~~   ** Occurs in AirTerminal:SingleDuct:VAV:Reheat = AIR TERMINAL SINGLE DUCT VAV REHEAT 1\n   ** Warning ** Fan:ZoneExhaust=\"ZONE EXHAUST FAN\" has specified 0.0 max air flow rate. It will not be used in the simulation.\n   ************* Beginning Plant Sizing Calculations\n   ** Warning ** In calculating the design coil UA for Coil:Cooling:Water COIL COOLING WATER 1\n   **   ~~~   ** no apparatus dew-point can be found for the initial entering and leaving conditions;\n   **   ~~~   ** the coil outlet design conditions will be changed to correct the problem.\n   **   ~~~   ** The initial design conditions are: Tair,in = 31.9873\n   **   ~~~   **                                    Wair,in = 1.946390E-002\n   **   ~~~   **                                    Twater,in = 7.2200\n   **   ~~~   **                                    Tair,out = 12.8000\n   **   ~~~   **                                    Wair,out = 1.036147E-002\n   **   ~~~   ** The revised design conditions are: Tair,out = 12.7997\n   **   ~~~   **                                    Wair,out = 1.036158E-002\n   ** Warning ** GetElectricEIRChillerInput: Chiller:Electric:EIR=\"CHILLER ELECTRIC EIR 1\"\n   **   ~~~   ** Energy input ratio as a function of temperature curve output is not equal to 1.0 (+ or - 10%) at reference conditions.\n   **   ~~~   ** Curve output at reference conditions = 0.861\n   ** Warning ** SetpointManager:MixedAir=\"SETPOINT MANAGER MIXED AIR 4\"\n   **   ~~~   ** ...setpoint node conflicts with another setpoint manager.\n   **   ~~~   ** ...conflicting setpoint manager = SetpointManager:MixedAir:\"NODE 14 OS DEFAULT SPM\"\n   **   ~~~   ** ...conflicting node name = NODE 14\n   **   ~~~   ** ...control type variable = Temperature\n   ** Warning ** SetpointManager:MixedAir=\"SETPOINT MANAGER MIXED AIR 1\"\n   **   ~~~   ** ...setpoint node conflicts with another setpoint manager.\n   **   ~~~   ** ...conflicting setpoint manager = SetpointManager:MixedAir:\"NODE 12 OS DEFAULT SPM\"\n   **   ~~~   ** ...conflicting node name = NODE 12\n   **   ~~~   ** ...control type variable = Temperature\n   ** Warning ** SetpointManager:MixedAir=\"SETPOINT MANAGER MIXED AIR 2\"\n   **   ~~~   ** ...setpoint node conflicts with another setpoint manager.\n   **   ~~~   ** ...conflicting setpoint manager = SetpointManager:MixedAir:\"NODE 11 OS DEFAULT SPM\"\n   **   ~~~   ** ...conflicting node name = NODE 11\n   **   ~~~   ** ...control type variable = Temperature\n   ** Warning ** SetpointManager:MixedAir=\"SETPOINT MANAGER MIXED AIR 3\"\n   **   ~~~   ** ...setpoint node conflicts with another setpoint manager.\n   **   ~~~   ** ...conflicting setpoint manager = SetpointManager:MixedAir:\"NODE 10 OS DEFAULT SPM\"\n   **   ~~~   ** ...conflicting node name = NODE 10\n   **   ~~~   ** ...control type variable = Temperature\n   ** Warning ** Output:Meter: invalid Key Name=\"DISTRICTCOOLING:FACILITY\" - not found.\n   ** Warning ** Output:Meter: invalid Key Name=\"DISTRICTHEATING:FACILITY\" - not found.\n   ** Warning ** Output:Meter:MeterFileOnly: invalid Key Name=\"PROPANE:FACILITY\" - not found.\n   ** Warning ** Output:Meter:MeterFileOnly requested for \"Electricity:Facility\" (TimeStep), already on \"Output:Meter\". Will report to both eplusout.eso and eplusout.mtr\n   ************* Testing Individual Branch Integrity\n   ************* All Branches passed integrity testing\n   ************* Testing Individual Supply Air Path Integrity\n   ************* All Supply Air Paths passed integrity testing\n   ************* Testing Individual Return Air Path Integrity\n   ************* All Return Air Paths passed integrity testing\n   ************* No node connection errors were found.\n   ************* Beginning Simulation\n   ** Warning ** CalcDoe2DXCoil: Coil:Cooling:DX:SingleSpeed \"COIL COOLING DX SINGLE SPEED 1\" - Full load outlet air dry-bulb temperature < 2C. This indicates the possibility of coil frost/freeze. Outlet temperature = -9.25 C.\n   **   ~~~   **  ...Occurrence info = RUN PERIOD 1, 01/04 22:10 - 22:12\n   **   ~~~   ** ... Possible reasons for low outlet air dry-bulb temperatures are: This DX coil\n   **   ~~~   **    1) may have a low inlet air dry-bulb temperature. Inlet air temperature = 16.302 C.\n   **   ~~~   **    2) may have a low air flow rate per watt of cooling capacity. Check inputs.\n   **   ~~~   **    3) is used as part of a HX assisted cooling coil which uses a high sensible effectiveness. Check inputs.\n   ** Warning ** CalcDoe2DXCoil: Coil:Cooling:DX:SingleSpeed \"COIL COOLING DX SINGLE SPEED 1\" - Air-cooled condenser inlet dry-bulb temperature below 0 C. Outdoor dry-bulb temperature = -0.33\n   **   ~~~   **  ... Occurrence info = RUN PERIOD 1, 01/05 22:10 - 22:12\n   **   ~~~   ** ... Operation at low ambient temperatures may require special performance curves.\n   ** Warning ** Plant Loop: CONDENSER WATER LOOP Demand Side is storing excess heat the majority of the time.\n   ** Warning ** Plant Loop: CONDENSER WATER LOOP Supply Side is storing excess heat the majority of the time.\n   ** Warning ** The resource referenced by LifeCycleCost:UsePriceEscalation= \"U.S. AVG  COMMERCIAL-ELECTRICITY\" has no energy cost. \n   **   ~~~   ** ... It is likely that the wrong resource is used. The resource should match the meter used in Utility:Tariff.\n   ** Warning ** The resource referenced by LifeCycleCost:UsePriceEscalation= \"U.S. AVG  COMMERCIAL-DISTILLATE OIL\" has no energy cost. \n   **   ~~~   ** ... It is likely that the wrong resource is used. The resource should match the meter used in Utility:Tariff.\n   ** Warning ** The resource referenced by LifeCycleCost:UsePriceEscalation= \"U.S. AVG  COMMERCIAL-RESIDUAL OIL\" has no energy cost. \n   **   ~~~   ** ... It is likely that the wrong resource is used. The resource should match the meter used in Utility:Tariff.\n   ** Warning ** The resource referenced by LifeCycleCost:UsePriceEscalation= \"U.S. AVG  COMMERCIAL-NATURAL GAS\" has no energy cost. \n   **   ~~~   ** ... It is likely that the wrong resource is used. The resource should match the meter used in Utility:Tariff.\n   ** Warning ** The resource referenced by LifeCycleCost:UsePriceEscalation= \"U.S. AVG  COMMERCIAL-COAL\" has no energy cost. \n   **   ~~~   ** ... It is likely that the wrong resource is used. The resource should match the meter used in Utility:Tariff.\n   ************* Simulation Error Summary *************\n   ************* There are 5 unused schedules in input.\n   ************* There are 5 unused week schedules in input.\n   ************* There are 30 unused day schedules in input.\n   ************* Use Output:Diagnostics,DisplayUnusedSchedules; to see them.\n   *************\n   ************* ===== Recurring Error Summary =====\n   ************* The following recurring error messages occurred.\n   *************\n   *************  ** Warning ** CalcDoe2DXCoil: Coil:Cooling:DX:SingleSpeed=\"COIL COOLING DX SINGLE SPEED 1\" - Full load outlet temperature indicates a possibility of frost/freeze error continues. Outlet air temperature statistics follow:\n   *************  **   ~~~   **   This error occurred 5425 total times;\n   *************  **   ~~~   **   during Warmup 0 times;\n   *************  **   ~~~   **   during Sizing 0 times.\n   *************  **   ~~~   **   Max=1.99866  Min=-12.210294\n   *************\n   *************  ** Warning ** CalcDoe2DXCoil: Coil:Cooling:DX:SingleSpeed=\"COIL COOLING DX SINGLE SPEED 1\" - Low condenser dry-bulb temperature error continues...\n   *************  **   ~~~   **   This error occurred 81 total times;\n   *************  **   ~~~   **   during Warmup 0 times;\n   *************  **   ~~~   **   during Sizing 0 times.\n   *************  **   ~~~   **   Max=-1.110223E-016 [C]  Min=-11.666667 [C]\n   *************\n   *************\n   ************* ===== Final Error Summary =====\n   ************* The following error categories occurred.  Consider correcting or noting.\n   ************* Nominally Unused Constructions\n   ************* ..The nominally unused constructions warning is provided to alert you to potential conditions that can cause\n   ************* ..extra time during simulation. Each construction is calculated by the algorithm indicated in the HeatBalanceAlgorithm\n   ************* ..object. You may remove the constructions indicated (when you use the DisplayExtraWarnings option).\n   *************\n   ************* EnergyPlus Warmup Error Summary. During Warmup: 0 Warning; 0 Severe Errors.\n   ************* EnergyPlus Sizing Error Summary. During Sizing: 19 Warning; 0 Severe Errors.\n   ************* EnergyPlus Completed Successfully-- 5542 Warning; 0 Severe Errors; Elapsed Time=00hr 00min 24.69sec\n",
   "hash" : "9FA14212",
   "seed_file" : "/home/osdev/btap/measures/btap_open_studio_results/tests/output/test_example_model/TestOutput.osm",
   "started_at" : "20180606T170241Z",
   "steps" : [],
   "updated_at" : "20180606T170323Z",
   "weather_file" : "/home/osdev/btap/measures/btap_open_studio_results/tests/USA_CO_Golden-NREL.724666_TMY3.epw"
}
