Program Version,EnergyPlus, Version 9.1.0-fafb9d5652, YMD=2019.10.28 18:37
! This file shows details about the branches, nodes, and other
! elements of the flow connections.
! This file is intended for use in "debugging" potential problems
! that may also be detected by the program, but may be more easily
! identified by "eye".
! This file is also intended to support software which draws a
! schematic diagram of the HVAC system.
! ===============================================================
! #Nodes,<Number of Unique Nodes>
 #Nodes,223
! <Node>,<NodeNumber>,<Node Name>,<Node Fluid Type>,<# Times Node Referenced After Definition>
 Node,1,NODE 83,Air,4
 Node,2,NODE 89,Air,2
 Node,3,NODE 111,Air,4
 Node,4,NODE 117,Air,2
 Node,5,NODE 125,Air,4
 Node,6,NODE 131,Air,2
 Node,7,NODE 139,Air,4
 Node,8,NODE 145,Air,2
 Node,9,NODE 153,Air,4
 Node,10,NODE 159,Air,2
 Node,11,NODE 27,Air,4
 Node,12,NODE 34,Air,2
 Node,13,NODE 41,Air,4
 Node,14,NODE 47,Air,2
 Node,15,NODE 55,Air,4
 Node,16,NODE 61,Air,2
 Node,17,NODE 69,Air,4
 Node,18,NODE 75,Air,2
 Node,19,NODE 97,Air,4
 Node,20,NODE 103,Air,2
 Node,21,NODE 80,Air,10
 Node,22,NODE 81,Air,3
 Node,23,NODE 108,Air,10
 Node,24,NODE 109,Air,3
 Node,25,NODE 122,Air,10
 Node,26,NODE 123,Air,3
 Node,27,NODE 136,Air,10
 Node,28,NODE 137,Air,3
 Node,29,NODE 150,Air,10
 Node,30,NODE 151,Air,3
 Node,31,NODE 23,Air,10
 Node,32,NODE 24,Air,3
 Node,33,NODE 38,Air,10
 Node,34,NODE 39,Air,3
 Node,35,NODE 52,Air,10
 Node,36,NODE 53,Air,3
 Node,37,NODE 66,Air,10
 Node,38,NODE 67,Air,3
 Node,39,NODE 94,Air,10
 Node,40,NODE 95,Air,3
 Node,41,NODE 79,Air,4
 Node,42,NODE 88,Air,8
 Node,43,NODE 87,Air,6
 Node,44,NODE 86,Air,8
 Node,45,NODE 107,Air,4
 Node,46,NODE 116,Air,8
 Node,47,NODE 115,Air,6
 Node,48,NODE 114,Air,8
 Node,49,NODE 121,Air,4
 Node,50,NODE 130,Air,8
 Node,51,NODE 129,Air,6
 Node,52,NODE 128,Air,8
 Node,53,NODE 135,Air,4
 Node,54,NODE 144,Air,8
 Node,55,NODE 143,Air,6
 Node,56,NODE 142,Air,8
 Node,57,NODE 149,Air,4
 Node,58,NODE 158,Air,8
 Node,59,NODE 157,Air,6
 Node,60,NODE 156,Air,8
 Node,61,NODE 21,Air,4
 Node,62,NODE 33,Air,8
 Node,63,NODE 32,Air,6
 Node,64,NODE 31,Air,8
 Node,65,NODE 37,Air,4
 Node,66,NODE 46,Air,8
 Node,67,NODE 45,Air,6
 Node,68,NODE 44,Air,8
 Node,69,NODE 51,Air,4
 Node,70,NODE 60,Air,8
 Node,71,NODE 59,Air,6
 Node,72,NODE 58,Air,8
 Node,73,NODE 65,Air,4
 Node,74,NODE 74,Air,8
 Node,75,NODE 73,Air,6
 Node,76,NODE 72,Air,8
 Node,77,NODE 93,Air,4
 Node,78,NODE 102,Air,8
 Node,79,NODE 101,Air,6
 Node,80,NODE 100,Air,8
 Node,81,NODE 2,Water,2
 Node,82,NODE 11,Water,1
 Node,83,NODE 5,Water,1
 Node,84,NODE 12,Water,1
 Node,85,NODE 14,Water,1
 Node,86,NODE 15,Water,1
 Node,87,NODE 17,Water,1
 Node,88,NODE 18,Water,1
 Node,89,NODE 20,Water,1
 Node,90,NODE 3,Water,4
 Node,91,NODE 6,Water,2
 Node,92,HOT WATER LOOP DEMAND INLET PIPE NODE,Water,1
 Node,93,NODE 9,Water,1
 Node,94,NODE 36,Water,1
 Node,95,NODE 49,Water,1
 Node,96,NODE 50,Water,1
 Node,97,NODE 63,Water,1
 Node,98,NODE 64,Water,1
 Node,99,NODE 77,Water,1
 Node,100,NODE 78,Water,1
 Node,101,NODE 91,Water,1
 Node,102,NODE 92,Water,1
 Node,103,NODE 105,Water,1
 Node,104,NODE 106,Water,1
 Node,105,NODE 119,Water,1
 Node,106,NODE 120,Water,1
 Node,107,NODE 133,Water,1
 Node,108,NODE 134,Water,1
 Node,109,NODE 147,Water,1
 Node,110,NODE 148,Water,1
 Node,111,NODE 161,Water,1
 Node,112,NODE 162,Water,1
 Node,113,HOT WATER LOOP DEMAND BYPASS PIPE INLET NODE,Water,1
 Node,114,HOT WATER LOOP DEMAND BYPASS PIPE OUTLET NODE,Water,1
 Node,115,HOT WATER LOOP DEMAND OUTLET PIPE NODE,Water,1
 Node,116,NODE 8,Water,2
 Node,117,NODE 163,Water,2
 Node,118,NODE 169,Water,1
 Node,119,NODE 165,Water,1
 Node,120,NODE 170,Water,1
 Node,121,NODE 171,Water,1
 Node,122,NODE 172,Water,1
 Node,123,NODE 174,Water,1
 Node,124,NODE 164,Water,4
 Node,125,NODE 166,Water,2
 Node,126,MAIN SERVICE WATER LOOP DEMAND INLET PIPE NODE,Water,1
 Node,127,NODE 168,Water,1
 Node,128,NODE 173,Water,1
 Node,129,NODE 176,Water,1
 Node,130,NODE 177,Water,1
 Node,131,NODE 178,Water,1
 Node,132,NODE 179,Water,1
 Node,133,NODE 180,Water,1
 Node,134,NODE 181,Water,1
 Node,135,NODE 182,Water,1
 Node,136,NODE 183,Water,1
 Node,137,NODE 184,Water,1
 Node,138,NODE 185,Water,1
 Node,139,NODE 186,Water,1
 Node,140,NODE 187,Water,1
 Node,141,NODE 188,Water,1
 Node,142,NODE 189,Water,1
 Node,143,NODE 190,Water,1
 Node,144,NODE 191,Water,1
 Node,145,NODE 192,Water,1
 Node,146,NODE 193,Water,1
 Node,147,NODE 194,Water,1
 Node,148,NODE 195,Water,1
 Node,149,MAIN SERVICE WATER LOOP DEMAND BYPASS PIPE INLET NODE,Water,1
 Node,150,MAIN SERVICE WATER LOOP DEMAND BYPASS PIPE OUTLET NODE,Water,1
 Node,151,NODE 175,Water,1
 Node,152,NODE 167,Water,2
 Node,153,NODE 13,Air,1
 Node,154,NODE 19,Air,1
 Node,155,NODE 22,Air,1
 Node,156,NODE 25,Air,1
 Node,157,NODE 28,Air,1
 Node,158,NODE 1,Air,1
 Node,159,NODE 4,Air,1
 Node,160,NODE 7,Air,1
 Node,161,NODE 10,Air,1
 Node,162,NODE 16,Air,1
 Node,163,NODE 82,Air,2
 Node,164,NODE 110,Air,2
 Node,165,NODE 124,Air,2
 Node,166,NODE 138,Air,2
 Node,167,NODE 152,Air,2
 Node,168,NODE 26,Air,2
 Node,169,NODE 40,Air,2
 Node,170,NODE 54,Air,2
 Node,171,NODE 68,Air,2
 Node,172,NODE 96,Air,2
 Node,173,NODE 84,Air,3
 Node,174,NODE 112,Air,3
 Node,175,NODE 126,Air,3
 Node,176,NODE 140,Air,3
 Node,177,NODE 154,Air,3
 Node,178,NODE 29,Air,3
 Node,179,NODE 42,Air,3
 Node,180,NODE 56,Air,3
 Node,181,NODE 70,Air,3
 Node,182,NODE 98,Air,3
 Node,183,MODEL OUTDOOR AIR NODE,Air,0
 Node,184,NODE 197,Air,2
 Node,185,NODE 199,Air,2
 Node,186,NODE 201,Air,2
 Node,187,NODE 203,Air,2
 Node,188,NODE 205,Air,2
 Node,189,NODE 207,Air,2
 Node,190,NODE 209,Air,2
 Node,191,NODE 211,Air,2
 Node,192,NODE 213,Air,2
 Node,193,NODE 215,Air,2
 Node,194,NODE 90,Air,1
 Node,195,NODE 118,Air,1
 Node,196,NODE 132,Air,1
 Node,197,NODE 146,Air,1
 Node,198,NODE 160,Air,1
 Node,199,NODE 35,Air,1
 Node,200,NODE 48,Air,1
 Node,201,NODE 62,Air,1
 Node,202,NODE 76,Air,1
 Node,203,NODE 104,Air,1
 Node,204,NODE 198,Air,2
 Node,205,NODE 200,Air,2
 Node,206,NODE 202,Air,2
 Node,207,NODE 204,Air,2
 Node,208,NODE 206,Air,2
 Node,209,NODE 208,Air,2
 Node,210,NODE 210,Air,2
 Node,211,NODE 212,Air,2
 Node,212,NODE 214,Air,2
 Node,213,NODE 216,Air,2
 Node,214,NODE 85,Air,0
 Node,215,NODE 113,Air,0
 Node,216,NODE 127,Air,0
 Node,217,NODE 141,Air,0
 Node,218,NODE 155,Air,0
 Node,219,NODE 30,Air,0
 Node,220,NODE 43,Air,0
 Node,221,NODE 57,Air,0
 Node,222,NODE 71,Air,0
 Node,223,NODE 99,Air,0
! ===============================================================
! Suspicious nodes have 0 references.  It is normal for some nodes, however.
! Listing nodes with 0 references (culled from previous list):
! <Suspicious Node>,<NodeNumber>,<Node Name>,<Node Fluid Type>,<# Times Node Referenced After Definition>
 Suspicious Node,183,MODEL OUTDOOR AIR NODE,Air,0
 Suspicious Node,214,NODE 85,Air,0
 Suspicious Node,215,NODE 113,Air,0
 Suspicious Node,216,NODE 127,Air,0
 Suspicious Node,217,NODE 141,Air,0
 Suspicious Node,218,NODE 155,Air,0
 Suspicious Node,219,NODE 30,Air,0
 Suspicious Node,220,NODE 43,Air,0
 Suspicious Node,221,NODE 57,Air,0
 Suspicious Node,222,NODE 71,Air,0
 Suspicious Node,223,NODE 99,Air,0
! ===============================================================
! <#Branch Lists>,<Number of Branch Lists>
 #Branch Lists,14
! <Branch List>,<Branch List Count>,<Branch List Name>,<Loop Name>,<Loop Type>,<Number of Branches>
! <Branch>,<Branch Count>,<Branch Name>,<Loop Name>,<Loop Type>,<Branch Inlet Node Name>,<Branch Outlet Node Name>
 Branch List,1,SYS_3_PSZ ALL_ST=WHOLEBUILDING_FL=STORY 1_SCH=A SUPPLY BRANCHES,SYS_3_PSZ ALL_ST=WHOLEBUILDING_FL=STORY 1_SCH=A,Air,1
   Branch,1,SYS_3_PSZ ALL_ST=WHOLEBUILDING_FL=STORY 1_SCH=A MAIN BRANCH,SYS_3_PSZ ALL_ST=WHOLEBUILDING_FL=STORY 1_SCH=A,Air,NODE 79,NODE 80
 Branch List,2,SYS_3_PSZ ALL_ST=WHOLEBUILDING_FL=STORY 1_SCH=A 1 SUPPLY BRANCHES,SYS_3_PSZ ALL_ST=WHOLEBUILDING_FL=STORY 1_SCH=A 1,Air,1
   Branch,1,SYS_3_PSZ ALL_ST=WHOLEBUILDING_FL=STORY 1_SCH=A 1 MAIN BRANCH,SYS_3_PSZ ALL_ST=WHOLEBUILDING_FL=STORY 1_SCH=A 1,Air,NODE 107,NODE 108
 Branch List,3,SYS_3_PSZ ALL_ST=WHOLEBUILDING_FL=STORY 1_SCH=A 2 SUPPLY BRANCHES,SYS_3_PSZ ALL_ST=WHOLEBUILDING_FL=STORY 1_SCH=A 2,Air,1
   Branch,1,SYS_3_PSZ ALL_ST=WHOLEBUILDING_FL=STORY 1_SCH=A 2 MAIN BRANCH,SYS_3_PSZ ALL_ST=WHOLEBUILDING_FL=STORY 1_SCH=A 2,Air,NODE 121,NODE 122
 Branch List,4,SYS_3_PSZ ALL_ST=WHOLEBUILDING_FL=STORY 1_SCH=A 3 SUPPLY BRANCHES,SYS_3_PSZ ALL_ST=WHOLEBUILDING_FL=STORY 1_SCH=A 3,Air,1
   Branch,1,SYS_3_PSZ ALL_ST=WHOLEBUILDING_FL=STORY 1_SCH=A 3 MAIN BRANCH,SYS_3_PSZ ALL_ST=WHOLEBUILDING_FL=STORY 1_SCH=A 3,Air,NODE 135,NODE 136
 Branch List,5,SYS_3_PSZ ALL_ST=WHOLEBUILDING_FL=STORY 1_SCH=A 4 SUPPLY BRANCHES,SYS_3_PSZ ALL_ST=WHOLEBUILDING_FL=STORY 1_SCH=A 4,Air,1
   Branch,1,SYS_3_PSZ ALL_ST=WHOLEBUILDING_FL=STORY 1_SCH=A 4 MAIN BRANCH,SYS_3_PSZ ALL_ST=WHOLEBUILDING_FL=STORY 1_SCH=A 4,Air,NODE 149,NODE 150
 Branch List,6,SYS_3_PSZ ALL_ST=WHOLEBUILDING_FL=STORY 2_SCH=A SUPPLY BRANCHES,SYS_3_PSZ ALL_ST=WHOLEBUILDING_FL=STORY 2_SCH=A,Air,1
   Branch,1,SYS_3_PSZ ALL_ST=WHOLEBUILDING_FL=STORY 2_SCH=A MAIN BRANCH,SYS_3_PSZ ALL_ST=WHOLEBUILDING_FL=STORY 2_SCH=A,Air,NODE 21,NODE 23
 Branch List,7,SYS_3_PSZ ALL_ST=WHOLEBUILDING_FL=STORY 2_SCH=A 1 SUPPLY BRANCHES,SYS_3_PSZ ALL_ST=WHOLEBUILDING_FL=STORY 2_SCH=A 1,Air,1
   Branch,1,SYS_3_PSZ ALL_ST=WHOLEBUILDING_FL=STORY 2_SCH=A 1 MAIN BRANCH,SYS_3_PSZ ALL_ST=WHOLEBUILDING_FL=STORY 2_SCH=A 1,Air,NODE 37,NODE 38
 Branch List,8,SYS_3_PSZ ALL_ST=WHOLEBUILDING_FL=STORY 2_SCH=A 2 SUPPLY BRANCHES,SYS_3_PSZ ALL_ST=WHOLEBUILDING_FL=STORY 2_SCH=A 2,Air,1
   Branch,1,SYS_3_PSZ ALL_ST=WHOLEBUILDING_FL=STORY 2_SCH=A 2 MAIN BRANCH,SYS_3_PSZ ALL_ST=WHOLEBUILDING_FL=STORY 2_SCH=A 2,Air,NODE 51,NODE 52
 Branch List,9,SYS_3_PSZ ALL_ST=WHOLEBUILDING_FL=STORY 2_SCH=A 3 SUPPLY BRANCHES,SYS_3_PSZ ALL_ST=WHOLEBUILDING_FL=STORY 2_SCH=A 3,Air,1
   Branch,1,SYS_3_PSZ ALL_ST=WHOLEBUILDING_FL=STORY 2_SCH=A 3 MAIN BRANCH,SYS_3_PSZ ALL_ST=WHOLEBUILDING_FL=STORY 2_SCH=A 3,Air,NODE 65,NODE 66
 Branch List,10,SYS_3_PSZ ALL_ST=WHOLEBUILDING_FL=STORY 2_SCH=A 4 SUPPLY BRANCHES,SYS_3_PSZ ALL_ST=WHOLEBUILDING_FL=STORY 2_SCH=A 4,Air,1
   Branch,1,SYS_3_PSZ ALL_ST=WHOLEBUILDING_FL=STORY 2_SCH=A 4 MAIN BRANCH,SYS_3_PSZ ALL_ST=WHOLEBUILDING_FL=STORY 2_SCH=A 4,Air,NODE 93,NODE 94
 Branch List,11,HOT WATER LOOP SUPPLY BRANCHES,HOT WATER LOOP,Plant Supply,5
   Branch,1,HOT WATER LOOP SUPPLY INLET BRANCH,HOT WATER LOOP,Plant Supply,NODE 2,NODE 11
   Branch,2,HOT WATER LOOP SUPPLY BRANCH 1,HOT WATER LOOP,Plant Supply,NODE 5,NODE 12
   Branch,3,HOT WATER LOOP SUPPLY BRANCH 2,HOT WATER LOOP,Plant Supply,NODE 14,NODE 15
   Branch,4,HOT WATER LOOP SUPPLY BRANCH 3,HOT WATER LOOP,Plant Supply,NODE 17,NODE 18
   Branch,5,HOT WATER LOOP SUPPLY OUTLET BRANCH,HOT WATER LOOP,Plant Supply,NODE 20,NODE 3
 Branch List,12,HOT WATER LOOP DEMAND BRANCHES,HOT WATER LOOP,Plant Demand,13
   Branch,1,HOT WATER LOOP DEMAND INLET BRANCH,HOT WATER LOOP,Plant Demand,NODE 6,HOT WATER LOOP DEMAND INLET PIPE NODE
   Branch,2,HOT WATER LOOP DEMAND BRANCH 1,HOT WATER LOOP,Plant Demand,NODE 9,NODE 36
   Branch,3,HOT WATER LOOP DEMAND BRANCH 2,HOT WATER LOOP,Plant Demand,NODE 49,NODE 50
   Branch,4,HOT WATER LOOP DEMAND BRANCH 3,HOT WATER LOOP,Plant Demand,NODE 63,NODE 64
   Branch,5,HOT WATER LOOP DEMAND BRANCH 4,HOT WATER LOOP,Plant Demand,NODE 77,NODE 78
   Branch,6,HOT WATER LOOP DEMAND BRANCH 5,HOT WATER LOOP,Plant Demand,NODE 91,NODE 92
   Branch,7,HOT WATER LOOP DEMAND BRANCH 6,HOT WATER LOOP,Plant Demand,NODE 105,NODE 106
   Branch,8,HOT WATER LOOP DEMAND BRANCH 7,HOT WATER LOOP,Plant Demand,NODE 119,NODE 120
   Branch,9,HOT WATER LOOP DEMAND BRANCH 8,HOT WATER LOOP,Plant Demand,NODE 133,NODE 134
   Branch,10,HOT WATER LOOP DEMAND BRANCH 9,HOT WATER LOOP,Plant Demand,NODE 147,NODE 148
   Branch,11,HOT WATER LOOP DEMAND BRANCH 10,HOT WATER LOOP,Plant Demand,NODE 161,NODE 162
   Branch,12,HOT WATER LOOP DEMAND BYPASS BRANCH,HOT WATER LOOP,Plant Demand,HOT WATER LOOP DEMAND BYPASS PIPE INLET NODE,HOT WATER LOOP DEMAND BYPASS PIPE OUTLET NODE
   Branch,13,HOT WATER LOOP DEMAND OUTLET BRANCH,HOT WATER LOOP,Plant Demand,HOT WATER LOOP DEMAND OUTLET PIPE NODE,NODE 8
 Branch List,13,MAIN SERVICE WATER LOOP SUPPLY BRANCHES,MAIN SERVICE WATER LOOP,Plant Supply,4
   Branch,1,MAIN SERVICE WATER LOOP SUPPLY INLET BRANCH,MAIN SERVICE WATER LOOP,Plant Supply,NODE 163,NODE 169
   Branch,2,MAIN SERVICE WATER LOOP SUPPLY BRANCH 1,MAIN SERVICE WATER LOOP,Plant Supply,NODE 165,NODE 170
   Branch,3,MAIN SERVICE WATER LOOP SUPPLY BRANCH 2,MAIN SERVICE WATER LOOP,Plant Supply,NODE 171,NODE 172
   Branch,4,MAIN SERVICE WATER LOOP SUPPLY OUTLET BRANCH,MAIN SERVICE WATER LOOP,Plant Supply,NODE 174,NODE 164
 Branch List,14,MAIN SERVICE WATER LOOP DEMAND BRANCHES,MAIN SERVICE WATER LOOP,Plant Demand,14
   Branch,1,MAIN SERVICE WATER LOOP DEMAND INLET BRANCH,MAIN SERVICE WATER LOOP,Plant Demand,NODE 166,MAIN SERVICE WATER LOOP DEMAND INLET PIPE NODE
   Branch,2,MAIN SERVICE WATER LOOP DEMAND BRANCH 1,MAIN SERVICE WATER LOOP,Plant Demand,NODE 168,NODE 173
   Branch,3,MAIN SERVICE WATER LOOP DEMAND BRANCH 2,MAIN SERVICE WATER LOOP,Plant Demand,NODE 176,NODE 177
   Branch,4,MAIN SERVICE WATER LOOP DEMAND BRANCH 3,MAIN SERVICE WATER LOOP,Plant Demand,NODE 178,NODE 179
   Branch,5,MAIN SERVICE WATER LOOP DEMAND BRANCH 4,MAIN SERVICE WATER LOOP,Plant Demand,NODE 180,NODE 181
   Branch,6,MAIN SERVICE WATER LOOP DEMAND BRANCH 5,MAIN SERVICE WATER LOOP,Plant Demand,NODE 182,NODE 183
   Branch,7,MAIN SERVICE WATER LOOP DEMAND BRANCH 6,MAIN SERVICE WATER LOOP,Plant Demand,NODE 184,NODE 185
   Branch,8,MAIN SERVICE WATER LOOP DEMAND BRANCH 7,MAIN SERVICE WATER LOOP,Plant Demand,NODE 186,NODE 187
   Branch,9,MAIN SERVICE WATER LOOP DEMAND BRANCH 8,MAIN SERVICE WATER LOOP,Plant Demand,NODE 188,NODE 189
   Branch,10,MAIN SERVICE WATER LOOP DEMAND BRANCH 9,MAIN SERVICE WATER LOOP,Plant Demand,NODE 190,NODE 191
   Branch,11,MAIN SERVICE WATER LOOP DEMAND BRANCH 10,MAIN SERVICE WATER LOOP,Plant Demand,NODE 192,NODE 193
   Branch,12,MAIN SERVICE WATER LOOP DEMAND BRANCH 11,MAIN SERVICE WATER LOOP,Plant Demand,NODE 194,NODE 195
   Branch,13,MAIN SERVICE WATER LOOP DEMAND BYPASS BRANCH,MAIN SERVICE WATER LOOP,Plant Demand,MAIN SERVICE WATER LOOP DEMAND BYPASS PIPE INLET NODE,MAIN SERVICE WATER LOOP DEMAND BYPASS PIPE OUTLET NODE
   Branch,14,MAIN SERVICE WATER LOOP DEMAND OUTLET BRANCH,MAIN SERVICE WATER LOOP,Plant Demand,NODE 175,NODE 167
! ===============================================================
! <#Supply Air Paths>,<Number of Supply Air Paths>
 #Supply Air Paths,10
! <Supply Air Path>,<Supply Air Path Count>,<Supply Air Path Name>,<AirLoopHVAC Name>
! <#Components on Supply Air Path>,<Number of Components>
! <Supply Air Path Component>,<Component Count>,<Component Type>,<Component Name>,<AirLoopHVAC Name>
! <#Outlet Nodes on Supply Air Path Component>,<Number of Nodes>
! <Supply Air Path Component Nodes>,<Node Count>,<Component Type>,<Component Name>,<Inlet Node Name>,<Outlet Node Name>,<AirLoopHVAC Name>
 Supply Air Path,1,SYS_3_PSZ ALL_ST=WHOLEBUILDING_FL=STORY 1_SCH=A NODE 81 SUPPLY PATH,SYS_3_PSZ ALL_ST=WHOLEBUILDING_FL=STORY 1_SCH=A
   #Components on Supply Air Path,1
   Supply Air Path Component,1,AIRLOOPHVAC:ZONESPLITTER,AIR LOOP HVAC ZONE SPLITTER 5,SYS_3_PSZ ALL_ST=WHOLEBUILDING_FL=STORY 1_SCH=A
     #Outlet Nodes on Supply Air Path Component,1
     Supply Air Path Component Nodes,1,AIRLOOPHVAC:ZONESPLITTER,AIR LOOP HVAC ZONE SPLITTER 5,NODE 81,NODE 90,SYS_3_PSZ ALL_ST=WHOLEBUILDING_FL=STORY 1_SCH=A
! <#Nodes on Supply Air Path>,<Number of Nodes>
! <Supply Air Path Node>,<Node Type>,<Node Count>,<Node Name>,<AirLoopHVAC Name>
#Nodes on Supply Air Path,2
   Supply Air Path Node,Inlet Node,1,NODE 81,SYS_3_PSZ ALL_ST=WHOLEBUILDING_FL=STORY 1_SCH=A
   Supply Air Path Node,Outlet Node,2,NODE 90,SYS_3_PSZ ALL_ST=WHOLEBUILDING_FL=STORY 1_SCH=A
 Supply Air Path,2,SYS_3_PSZ ALL_ST=WHOLEBUILDING_FL=STORY 1_SCH=A 1 NODE 109 SUPPLY PATH,SYS_3_PSZ ALL_ST=WHOLEBUILDING_FL=STORY 1_SCH=A 1
   #Components on Supply Air Path,1
   Supply Air Path Component,1,AIRLOOPHVAC:ZONESPLITTER,AIR LOOP HVAC ZONE SPLITTER 7,SYS_3_PSZ ALL_ST=WHOLEBUILDING_FL=STORY 1_SCH=A 1
     #Outlet Nodes on Supply Air Path Component,1
     Supply Air Path Component Nodes,1,AIRLOOPHVAC:ZONESPLITTER,AIR LOOP HVAC ZONE SPLITTER 7,NODE 109,NODE 118,SYS_3_PSZ ALL_ST=WHOLEBUILDING_FL=STORY 1_SCH=A 1
! <#Nodes on Supply Air Path>,<Number of Nodes>
! <Supply Air Path Node>,<Node Type>,<Node Count>,<Node Name>,<AirLoopHVAC Name>
#Nodes on Supply Air Path,2
   Supply Air Path Node,Inlet Node,1,NODE 109,SYS_3_PSZ ALL_ST=WHOLEBUILDING_FL=STORY 1_SCH=A 1
   Supply Air Path Node,Outlet Node,2,NODE 118,SYS_3_PSZ ALL_ST=WHOLEBUILDING_FL=STORY 1_SCH=A 1
 Supply Air Path,3,SYS_3_PSZ ALL_ST=WHOLEBUILDING_FL=STORY 1_SCH=A 2 NODE 123 SUPPLY PATH,SYS_3_PSZ ALL_ST=WHOLEBUILDING_FL=STORY 1_SCH=A 2
   #Components on Supply Air Path,1
   Supply Air Path Component,1,AIRLOOPHVAC:ZONESPLITTER,AIR LOOP HVAC ZONE SPLITTER 8,SYS_3_PSZ ALL_ST=WHOLEBUILDING_FL=STORY 1_SCH=A 2
     #Outlet Nodes on Supply Air Path Component,1
     Supply Air Path Component Nodes,1,AIRLOOPHVAC:ZONESPLITTER,AIR LOOP HVAC ZONE SPLITTER 8,NODE 123,NODE 132,SYS_3_PSZ ALL_ST=WHOLEBUILDING_FL=STORY 1_SCH=A 2
! <#Nodes on Supply Air Path>,<Number of Nodes>
! <Supply Air Path Node>,<Node Type>,<Node Count>,<Node Name>,<AirLoopHVAC Name>
#Nodes on Supply Air Path,2
   Supply Air Path Node,Inlet Node,1,NODE 123,SYS_3_PSZ ALL_ST=WHOLEBUILDING_FL=STORY 1_SCH=A 2
   Supply Air Path Node,Outlet Node,2,NODE 132,SYS_3_PSZ ALL_ST=WHOLEBUILDING_FL=STORY 1_SCH=A 2
 Supply Air Path,4,SYS_3_PSZ ALL_ST=WHOLEBUILDING_FL=STORY 1_SCH=A 3 NODE 137 SUPPLY PATH,SYS_3_PSZ ALL_ST=WHOLEBUILDING_FL=STORY 1_SCH=A 3
   #Components on Supply Air Path,1
   Supply Air Path Component,1,AIRLOOPHVAC:ZONESPLITTER,AIR LOOP HVAC ZONE SPLITTER 9,SYS_3_PSZ ALL_ST=WHOLEBUILDING_FL=STORY 1_SCH=A 3
     #Outlet Nodes on Supply Air Path Component,1
     Supply Air Path Component Nodes,1,AIRLOOPHVAC:ZONESPLITTER,AIR LOOP HVAC ZONE SPLITTER 9,NODE 137,NODE 146,SYS_3_PSZ ALL_ST=WHOLEBUILDING_FL=STORY 1_SCH=A 3
! <#Nodes on Supply Air Path>,<Number of Nodes>
! <Supply Air Path Node>,<Node Type>,<Node Count>,<Node Name>,<AirLoopHVAC Name>
#Nodes on Supply Air Path,2
   Supply Air Path Node,Inlet Node,1,NODE 137,SYS_3_PSZ ALL_ST=WHOLEBUILDING_FL=STORY 1_SCH=A 3
   Supply Air Path Node,Outlet Node,2,NODE 146,SYS_3_PSZ ALL_ST=WHOLEBUILDING_FL=STORY 1_SCH=A 3
 Supply Air Path,5,SYS_3_PSZ ALL_ST=WHOLEBUILDING_FL=STORY 1_SCH=A 4 NODE 151 SUPPLY PATH,SYS_3_PSZ ALL_ST=WHOLEBUILDING_FL=STORY 1_SCH=A 4
   #Components on Supply Air Path,1
   Supply Air Path Component,1,AIRLOOPHVAC:ZONESPLITTER,AIR LOOP HVAC ZONE SPLITTER 10,SYS_3_PSZ ALL_ST=WHOLEBUILDING_FL=STORY 1_SCH=A 4
     #Outlet Nodes on Supply Air Path Component,1
     Supply Air Path Component Nodes,1,AIRLOOPHVAC:ZONESPLITTER,AIR LOOP HVAC ZONE SPLITTER 10,NODE 151,NODE 160,SYS_3_PSZ ALL_ST=WHOLEBUILDING_FL=STORY 1_SCH=A 4
! <#Nodes on Supply Air Path>,<Number of Nodes>
! <Supply Air Path Node>,<Node Type>,<Node Count>,<Node Name>,<AirLoopHVAC Name>
#Nodes on Supply Air Path,2
   Supply Air Path Node,Inlet Node,1,NODE 151,SYS_3_PSZ ALL_ST=WHOLEBUILDING_FL=STORY 1_SCH=A 4
   Supply Air Path Node,Outlet Node,2,NODE 160,SYS_3_PSZ ALL_ST=WHOLEBUILDING_FL=STORY 1_SCH=A 4
 Supply Air Path,6,SYS_3_PSZ ALL_ST=WHOLEBUILDING_FL=STORY 2_SCH=A NODE 24 SUPPLY PATH,SYS_3_PSZ ALL_ST=WHOLEBUILDING_FL=STORY 2_SCH=A
   #Components on Supply Air Path,1
   Supply Air Path Component,1,AIRLOOPHVAC:ZONESPLITTER,AIR LOOP HVAC ZONE SPLITTER 1,SYS_3_PSZ ALL_ST=WHOLEBUILDING_FL=STORY 2_SCH=A
     #Outlet Nodes on Supply Air Path Component,1
     Supply Air Path Component Nodes,1,AIRLOOPHVAC:ZONESPLITTER,AIR LOOP HVAC ZONE SPLITTER 1,NODE 24,NODE 35,SYS_3_PSZ ALL_ST=WHOLEBUILDING_FL=STORY 2_SCH=A
! <#Nodes on Supply Air Path>,<Number of Nodes>
! <Supply Air Path Node>,<Node Type>,<Node Count>,<Node Name>,<AirLoopHVAC Name>
#Nodes on Supply Air Path,2
   Supply Air Path Node,Inlet Node,1,NODE 24,SYS_3_PSZ ALL_ST=WHOLEBUILDING_FL=STORY 2_SCH=A
   Supply Air Path Node,Outlet Node,2,NODE 35,SYS_3_PSZ ALL_ST=WHOLEBUILDING_FL=STORY 2_SCH=A
 Supply Air Path,7,SYS_3_PSZ ALL_ST=WHOLEBUILDING_FL=STORY 2_SCH=A 1 NODE 39 SUPPLY PATH,SYS_3_PSZ ALL_ST=WHOLEBUILDING_FL=STORY 2_SCH=A 1
   #Components on Supply Air Path,1
   Supply Air Path Component,1,AIRLOOPHVAC:ZONESPLITTER,AIR LOOP HVAC ZONE SPLITTER 2,SYS_3_PSZ ALL_ST=WHOLEBUILDING_FL=STORY 2_SCH=A 1
     #Outlet Nodes on Supply Air Path Component,1
     Supply Air Path Component Nodes,1,AIRLOOPHVAC:ZONESPLITTER,AIR LOOP HVAC ZONE SPLITTER 2,NODE 39,NODE 48,SYS_3_PSZ ALL_ST=WHOLEBUILDING_FL=STORY 2_SCH=A 1
! <#Nodes on Supply Air Path>,<Number of Nodes>
! <Supply Air Path Node>,<Node Type>,<Node Count>,<Node Name>,<AirLoopHVAC Name>
#Nodes on Supply Air Path,2
   Supply Air Path Node,Inlet Node,1,NODE 39,SYS_3_PSZ ALL_ST=WHOLEBUILDING_FL=STORY 2_SCH=A 1
   Supply Air Path Node,Outlet Node,2,NODE 48,SYS_3_PSZ ALL_ST=WHOLEBUILDING_FL=STORY 2_SCH=A 1
 Supply Air Path,8,SYS_3_PSZ ALL_ST=WHOLEBUILDING_FL=STORY 2_SCH=A 2 NODE 53 SUPPLY PATH,SYS_3_PSZ ALL_ST=WHOLEBUILDING_FL=STORY 2_SCH=A 2
   #Components on Supply Air Path,1
   Supply Air Path Component,1,AIRLOOPHVAC:ZONESPLITTER,AIR LOOP HVAC ZONE SPLITTER 3,SYS_3_PSZ ALL_ST=WHOLEBUILDING_FL=STORY 2_SCH=A 2
     #Outlet Nodes on Supply Air Path Component,1
     Supply Air Path Component Nodes,1,AIRLOOPHVAC:ZONESPLITTER,AIR LOOP HVAC ZONE SPLITTER 3,NODE 53,NODE 62,SYS_3_PSZ ALL_ST=WHOLEBUILDING_FL=STORY 2_SCH=A 2
! <#Nodes on Supply Air Path>,<Number of Nodes>
! <Supply Air Path Node>,<Node Type>,<Node Count>,<Node Name>,<AirLoopHVAC Name>
#Nodes on Supply Air Path,2
   Supply Air Path Node,Inlet Node,1,NODE 53,SYS_3_PSZ ALL_ST=WHOLEBUILDING_FL=STORY 2_SCH=A 2
   Supply Air Path Node,Outlet Node,2,NODE 62,SYS_3_PSZ ALL_ST=WHOLEBUILDING_FL=STORY 2_SCH=A 2
 Supply Air Path,9,SYS_3_PSZ ALL_ST=WHOLEBUILDING_FL=STORY 2_SCH=A 3 NODE 67 SUPPLY PATH,SYS_3_PSZ ALL_ST=WHOLEBUILDING_FL=STORY 2_SCH=A 3
   #Components on Supply Air Path,1
   Supply Air Path Component,1,AIRLOOPHVAC:ZONESPLITTER,AIR LOOP HVAC ZONE SPLITTER 4,SYS_3_PSZ ALL_ST=WHOLEBUILDING_FL=STORY 2_SCH=A 3
     #Outlet Nodes on Supply Air Path Component,1
     Supply Air Path Component Nodes,1,AIRLOOPHVAC:ZONESPLITTER,AIR LOOP HVAC ZONE SPLITTER 4,NODE 67,NODE 76,SYS_3_PSZ ALL_ST=WHOLEBUILDING_FL=STORY 2_SCH=A 3
! <#Nodes on Supply Air Path>,<Number of Nodes>
! <Supply Air Path Node>,<Node Type>,<Node Count>,<Node Name>,<AirLoopHVAC Name>
#Nodes on Supply Air Path,2
   Supply Air Path Node,Inlet Node,1,NODE 67,SYS_3_PSZ ALL_ST=WHOLEBUILDING_FL=STORY 2_SCH=A 3
   Supply Air Path Node,Outlet Node,2,NODE 76,SYS_3_PSZ ALL_ST=WHOLEBUILDING_FL=STORY 2_SCH=A 3
 Supply Air Path,10,SYS_3_PSZ ALL_ST=WHOLEBUILDING_FL=STORY 2_SCH=A 4 NODE 95 SUPPLY PATH,SYS_3_PSZ ALL_ST=WHOLEBUILDING_FL=STORY 2_SCH=A 4
   #Components on Supply Air Path,1
   Supply Air Path Component,1,AIRLOOPHVAC:ZONESPLITTER,AIR LOOP HVAC ZONE SPLITTER 6,SYS_3_PSZ ALL_ST=WHOLEBUILDING_FL=STORY 2_SCH=A 4
     #Outlet Nodes on Supply Air Path Component,1
     Supply Air Path Component Nodes,1,AIRLOOPHVAC:ZONESPLITTER,AIR LOOP HVAC ZONE SPLITTER 6,NODE 95,NODE 104,SYS_3_PSZ ALL_ST=WHOLEBUILDING_FL=STORY 2_SCH=A 4
! <#Nodes on Supply Air Path>,<Number of Nodes>
! <Supply Air Path Node>,<Node Type>,<Node Count>,<Node Name>,<AirLoopHVAC Name>
#Nodes on Supply Air Path,2
   Supply Air Path Node,Inlet Node,1,NODE 95,SYS_3_PSZ ALL_ST=WHOLEBUILDING_FL=STORY 2_SCH=A 4
   Supply Air Path Node,Outlet Node,2,NODE 104,SYS_3_PSZ ALL_ST=WHOLEBUILDING_FL=STORY 2_SCH=A 4
! ===============================================================
! <#Return Air Paths>,<Number of Return Air Paths>
 #Return Air Paths,10
! <Return Air Path>,<Return Air Path Count>,<Return Air Path Name>,<AirLoopHVAC Name>
! <#Components on Return Air Path>,<Number of Components>
! <Return Air Path Component>,<Component Count>,<Component Type>,<Component Name>,<AirLoopHVAC Name>
! <#Inlet Nodes on Return Air Path Component>,<Number of Nodes>
! <Return Air Path Component Nodes>,<Node Count>,<Component Type>,<Component Name>,<Inlet Node Name>,<Outlet Node Name>,<AirLoopHVAC Name>
 Return Air Path,1,SYS_3_PSZ ALL_ST=WHOLEBUILDING_FL=STORY 1_SCH=A RETURN PATH,SYS_3_PSZ ALL_ST=WHOLEBUILDING_FL=STORY 1_SCH=A
   #Components on Return Air Path,1
   Return Air Path Component,1,AIRLOOPHVAC:ZONEMIXER,AIR LOOP HVAC ZONE MIXER 5,SYS_3_PSZ ALL_ST=WHOLEBUILDING_FL=STORY 1_SCH=A
     #Inlet Nodes on Return Air Path Component,1
     Return Air Path Component Nodes,1,AIRLOOPHVAC:ZONEMIXER,AIR LOOP HVAC ZONE MIXER 5,NODE 89,NODE 82,SYS_3_PSZ ALL_ST=WHOLEBUILDING_FL=STORY 1_SCH=A
! <#Nodes on Return Air Path>,<Number of Nodes>
! <Return Air Path Node>,<Node Type>,<Node Count>,<Node Name>,<AirLoopHVAC Name>
   #Nodes on Return Air Path,2
   Return Air Path Node,Outlet Node,1,NODE 82,SYS_3_PSZ ALL_ST=WHOLEBUILDING_FL=STORY 1_SCH=A
   Return Air Path Node,Inlet Node,2,NODE 89,SYS_3_PSZ ALL_ST=WHOLEBUILDING_FL=STORY 1_SCH=A
 Return Air Path,2,SYS_3_PSZ ALL_ST=WHOLEBUILDING_FL=STORY 1_SCH=A 1 RETURN PATH,SYS_3_PSZ ALL_ST=WHOLEBUILDING_FL=STORY 1_SCH=A 1
   #Components on Return Air Path,1
   Return Air Path Component,1,AIRLOOPHVAC:ZONEMIXER,AIR LOOP HVAC ZONE MIXER 7,SYS_3_PSZ ALL_ST=WHOLEBUILDING_FL=STORY 1_SCH=A 1
     #Inlet Nodes on Return Air Path Component,1
     Return Air Path Component Nodes,1,AIRLOOPHVAC:ZONEMIXER,AIR LOOP HVAC ZONE MIXER 7,NODE 117,NODE 110,SYS_3_PSZ ALL_ST=WHOLEBUILDING_FL=STORY 1_SCH=A 1
! <#Nodes on Return Air Path>,<Number of Nodes>
! <Return Air Path Node>,<Node Type>,<Node Count>,<Node Name>,<AirLoopHVAC Name>
   #Nodes on Return Air Path,2
   Return Air Path Node,Outlet Node,1,NODE 110,SYS_3_PSZ ALL_ST=WHOLEBUILDING_FL=STORY 1_SCH=A 1
   Return Air Path Node,Inlet Node,2,NODE 117,SYS_3_PSZ ALL_ST=WHOLEBUILDING_FL=STORY 1_SCH=A 1
 Return Air Path,3,SYS_3_PSZ ALL_ST=WHOLEBUILDING_FL=STORY 1_SCH=A 2 RETURN PATH,SYS_3_PSZ ALL_ST=WHOLEBUILDING_FL=STORY 1_SCH=A 2
   #Components on Return Air Path,1
   Return Air Path Component,1,AIRLOOPHVAC:ZONEMIXER,AIR LOOP HVAC ZONE MIXER 8,SYS_3_PSZ ALL_ST=WHOLEBUILDING_FL=STORY 1_SCH=A 2
     #Inlet Nodes on Return Air Path Component,1
     Return Air Path Component Nodes,1,AIRLOOPHVAC:ZONEMIXER,AIR LOOP HVAC ZONE MIXER 8,NODE 131,NODE 124,SYS_3_PSZ ALL_ST=WHOLEBUILDING_FL=STORY 1_SCH=A 2
! <#Nodes on Return Air Path>,<Number of Nodes>
! <Return Air Path Node>,<Node Type>,<Node Count>,<Node Name>,<AirLoopHVAC Name>
   #Nodes on Return Air Path,2
   Return Air Path Node,Outlet Node,1,NODE 124,SYS_3_PSZ ALL_ST=WHOLEBUILDING_FL=STORY 1_SCH=A 2
   Return Air Path Node,Inlet Node,2,NODE 131,SYS_3_PSZ ALL_ST=WHOLEBUILDING_FL=STORY 1_SCH=A 2
 Return Air Path,4,SYS_3_PSZ ALL_ST=WHOLEBUILDING_FL=STORY 1_SCH=A 3 RETURN PATH,SYS_3_PSZ ALL_ST=WHOLEBUILDING_FL=STORY 1_SCH=A 3
   #Components on Return Air Path,1
   Return Air Path Component,1,AIRLOOPHVAC:ZONEMIXER,AIR LOOP HVAC ZONE MIXER 9,SYS_3_PSZ ALL_ST=WHOLEBUILDING_FL=STORY 1_SCH=A 3
     #Inlet Nodes on Return Air Path Component,1
     Return Air Path Component Nodes,1,AIRLOOPHVAC:ZONEMIXER,AIR LOOP HVAC ZONE MIXER 9,NODE 145,NODE 138,SYS_3_PSZ ALL_ST=WHOLEBUILDING_FL=STORY 1_SCH=A 3
! <#Nodes on Return Air Path>,<Number of Nodes>
! <Return Air Path Node>,<Node Type>,<Node Count>,<Node Name>,<AirLoopHVAC Name>
   #Nodes on Return Air Path,2
   Return Air Path Node,Outlet Node,1,NODE 138,SYS_3_PSZ ALL_ST=WHOLEBUILDING_FL=STORY 1_SCH=A 3
   Return Air Path Node,Inlet Node,2,NODE 145,SYS_3_PSZ ALL_ST=WHOLEBUILDING_FL=STORY 1_SCH=A 3
 Return Air Path,5,SYS_3_PSZ ALL_ST=WHOLEBUILDING_FL=STORY 1_SCH=A 4 RETURN PATH,SYS_3_PSZ ALL_ST=WHOLEBUILDING_FL=STORY 1_SCH=A 4
   #Components on Return Air Path,1
   Return Air Path Component,1,AIRLOOPHVAC:ZONEMIXER,AIR LOOP HVAC ZONE MIXER 10,SYS_3_PSZ ALL_ST=WHOLEBUILDING_FL=STORY 1_SCH=A 4
     #Inlet Nodes on Return Air Path Component,1
     Return Air Path Component Nodes,1,AIRLOOPHVAC:ZONEMIXER,AIR LOOP HVAC ZONE MIXER 10,NODE 159,NODE 152,SYS_3_PSZ ALL_ST=WHOLEBUILDING_FL=STORY 1_SCH=A 4
! <#Nodes on Return Air Path>,<Number of Nodes>
! <Return Air Path Node>,<Node Type>,<Node Count>,<Node Name>,<AirLoopHVAC Name>
   #Nodes on Return Air Path,2
   Return Air Path Node,Outlet Node,1,NODE 152,SYS_3_PSZ ALL_ST=WHOLEBUILDING_FL=STORY 1_SCH=A 4
   Return Air Path Node,Inlet Node,2,NODE 159,SYS_3_PSZ ALL_ST=WHOLEBUILDING_FL=STORY 1_SCH=A 4
 Return Air Path,6,SYS_3_PSZ ALL_ST=WHOLEBUILDING_FL=STORY 2_SCH=A RETURN PATH,SYS_3_PSZ ALL_ST=WHOLEBUILDING_FL=STORY 2_SCH=A
   #Components on Return Air Path,1
   Return Air Path Component,1,AIRLOOPHVAC:ZONEMIXER,AIR LOOP HVAC ZONE MIXER 1,SYS_3_PSZ ALL_ST=WHOLEBUILDING_FL=STORY 2_SCH=A
     #Inlet Nodes on Return Air Path Component,1
     Return Air Path Component Nodes,1,AIRLOOPHVAC:ZONEMIXER,AIR LOOP HVAC ZONE MIXER 1,NODE 34,NODE 26,SYS_3_PSZ ALL_ST=WHOLEBUILDING_FL=STORY 2_SCH=A
! <#Nodes on Return Air Path>,<Number of Nodes>
! <Return Air Path Node>,<Node Type>,<Node Count>,<Node Name>,<AirLoopHVAC Name>
   #Nodes on Return Air Path,2
   Return Air Path Node,Outlet Node,1,NODE 26,SYS_3_PSZ ALL_ST=WHOLEBUILDING_FL=STORY 2_SCH=A
   Return Air Path Node,Inlet Node,2,NODE 34,SYS_3_PSZ ALL_ST=WHOLEBUILDING_FL=STORY 2_SCH=A
 Return Air Path,7,SYS_3_PSZ ALL_ST=WHOLEBUILDING_FL=STORY 2_SCH=A 1 RETURN PATH,SYS_3_PSZ ALL_ST=WHOLEBUILDING_FL=STORY 2_SCH=A 1
   #Components on Return Air Path,1
   Return Air Path Component,1,AIRLOOPHVAC:ZONEMIXER,AIR LOOP HVAC ZONE MIXER 2,SYS_3_PSZ ALL_ST=WHOLEBUILDING_FL=STORY 2_SCH=A 1
     #Inlet Nodes on Return Air Path Component,1
     Return Air Path Component Nodes,1,AIRLOOPHVAC:ZONEMIXER,AIR LOOP HVAC ZONE MIXER 2,NODE 47,NODE 40,SYS_3_PSZ ALL_ST=WHOLEBUILDING_FL=STORY 2_SCH=A 1
! <#Nodes on Return Air Path>,<Number of Nodes>
! <Return Air Path Node>,<Node Type>,<Node Count>,<Node Name>,<AirLoopHVAC Name>
   #Nodes on Return Air Path,2
   Return Air Path Node,Outlet Node,1,NODE 40,SYS_3_PSZ ALL_ST=WHOLEBUILDING_FL=STORY 2_SCH=A 1
   Return Air Path Node,Inlet Node,2,NODE 47,SYS_3_PSZ ALL_ST=WHOLEBUILDING_FL=STORY 2_SCH=A 1
 Return Air Path,8,SYS_3_PSZ ALL_ST=WHOLEBUILDING_FL=STORY 2_SCH=A 2 RETURN PATH,SYS_3_PSZ ALL_ST=WHOLEBUILDING_FL=STORY 2_SCH=A 2
   #Components on Return Air Path,1
   Return Air Path Component,1,AIRLOOPHVAC:ZONEMIXER,AIR LOOP HVAC ZONE MIXER 3,SYS_3_PSZ ALL_ST=WHOLEBUILDING_FL=STORY 2_SCH=A 2
     #Inlet Nodes on Return Air Path Component,1
     Return Air Path Component Nodes,1,AIRLOOPHVAC:ZONEMIXER,AIR LOOP HVAC ZONE MIXER 3,NODE 61,NODE 54,SYS_3_PSZ ALL_ST=WHOLEBUILDING_FL=STORY 2_SCH=A 2
! <#Nodes on Return Air Path>,<Number of Nodes>
! <Return Air Path Node>,<Node Type>,<Node Count>,<Node Name>,<AirLoopHVAC Name>
   #Nodes on Return Air Path,2
   Return Air Path Node,Outlet Node,1,NODE 54,SYS_3_PSZ ALL_ST=WHOLEBUILDING_FL=STORY 2_SCH=A 2
   Return Air Path Node,Inlet Node,2,NODE 61,SYS_3_PSZ ALL_ST=WHOLEBUILDING_FL=STORY 2_SCH=A 2
 Return Air Path,9,SYS_3_PSZ ALL_ST=WHOLEBUILDING_FL=STORY 2_SCH=A 3 RETURN PATH,SYS_3_PSZ ALL_ST=WHOLEBUILDING_FL=STORY 2_SCH=A 3
   #Components on Return Air Path,1
   Return Air Path Component,1,AIRLOOPHVAC:ZONEMIXER,AIR LOOP HVAC ZONE MIXER 4,SYS_3_PSZ ALL_ST=WHOLEBUILDING_FL=STORY 2_SCH=A 3
     #Inlet Nodes on Return Air Path Component,1
     Return Air Path Component Nodes,1,AIRLOOPHVAC:ZONEMIXER,AIR LOOP HVAC ZONE MIXER 4,NODE 75,NODE 68,SYS_3_PSZ ALL_ST=WHOLEBUILDING_FL=STORY 2_SCH=A 3
! <#Nodes on Return Air Path>,<Number of Nodes>
! <Return Air Path Node>,<Node Type>,<Node Count>,<Node Name>,<AirLoopHVAC Name>
   #Nodes on Return Air Path,2
   Return Air Path Node,Outlet Node,1,NODE 68,SYS_3_PSZ ALL_ST=WHOLEBUILDING_FL=STORY 2_SCH=A 3
   Return Air Path Node,Inlet Node,2,NODE 75,SYS_3_PSZ ALL_ST=WHOLEBUILDING_FL=STORY 2_SCH=A 3
 Return Air Path,10,SYS_3_PSZ ALL_ST=WHOLEBUILDING_FL=STORY 2_SCH=A 4 RETURN PATH,SYS_3_PSZ ALL_ST=WHOLEBUILDING_FL=STORY 2_SCH=A 4
   #Components on Return Air Path,1
   Return Air Path Component,1,AIRLOOPHVAC:ZONEMIXER,AIR LOOP HVAC ZONE MIXER 6,SYS_3_PSZ ALL_ST=WHOLEBUILDING_FL=STORY 2_SCH=A 4
     #Inlet Nodes on Return Air Path Component,1
     Return Air Path Component Nodes,1,AIRLOOPHVAC:ZONEMIXER,AIR LOOP HVAC ZONE MIXER 6,NODE 103,NODE 96,SYS_3_PSZ ALL_ST=WHOLEBUILDING_FL=STORY 2_SCH=A 4
! <#Nodes on Return Air Path>,<Number of Nodes>
! <Return Air Path Node>,<Node Type>,<Node Count>,<Node Name>,<AirLoopHVAC Name>
   #Nodes on Return Air Path,2
   Return Air Path Node,Outlet Node,1,NODE 96,SYS_3_PSZ ALL_ST=WHOLEBUILDING_FL=STORY 2_SCH=A 4
   Return Air Path Node,Inlet Node,2,NODE 103,SYS_3_PSZ ALL_ST=WHOLEBUILDING_FL=STORY 2_SCH=A 4
! ===============================================================
! #Outdoor Air Nodes,<Number of Outdoor Air Nodes>
 #Outdoor Air Nodes,11
! <Outdoor Air Node>,<NodeNumber>,<Node Name>
 Outdoor Air Node,173,NODE 84
 Outdoor Air Node,174,NODE 112
 Outdoor Air Node,175,NODE 126
 Outdoor Air Node,176,NODE 140
 Outdoor Air Node,177,NODE 154
 Outdoor Air Node,178,NODE 29
 Outdoor Air Node,179,NODE 42
 Outdoor Air Node,180,NODE 56
 Outdoor Air Node,181,NODE 70
 Outdoor Air Node,182,NODE 98
 Outdoor Air Node,183,MODEL OUTDOOR AIR NODE
! ===============================================================
! <#Component Sets>,<Number of Component Sets>
 #Component Sets,116
! <Component Set>,<Component Set Count>,<Parent Object Type>,<Parent Object Name>,<Component Type>,<Component Name>,<Inlet Node ID>,<Outlet Node ID>,<Description>
 Component Set,1,BRANCH,SYS_3_PSZ ALL_ST=WHOLEBUILDING_FL=STORY 1_SCH=A MAIN BRANCH,AIRLOOPHVAC:OUTDOORAIRSYSTEM,AIR LOOP HVAC OUTDOOR AIR SYSTEM 5,NODE 79,NODE 88,Air Nodes
 Component Set,2,BRANCH,SYS_3_PSZ ALL_ST=WHOLEBUILDING_FL=STORY 1_SCH=A MAIN BRANCH,COILSYSTEM:COOLING:DX,COIL COOLING DX SINGLE SPEED 5 654KBTU/HR 8.21EER COILSYSTEM,NODE 88,NODE 87,Air Nodes
 Component Set,3,BRANCH,SYS_3_PSZ ALL_ST=WHOLEBUILDING_FL=STORY 1_SCH=A MAIN BRANCH,COIL:HEATING:FUEL,COIL HEATING GAS 5,NODE 87,NODE 86,Air Nodes
 Component Set,4,BRANCH,SYS_3_PSZ ALL_ST=WHOLEBUILDING_FL=STORY 1_SCH=A MAIN BRANCH,FAN:CONSTANTVOLUME,FAN CONSTANT VOLUME 5,NODE 86,NODE 80,Air Nodes
 Component Set,5,BRANCH,SYS_3_PSZ ALL_ST=WHOLEBUILDING_FL=STORY 1_SCH=A 1 MAIN BRANCH,AIRLOOPHVAC:OUTDOORAIRSYSTEM,AIR LOOP HVAC OUTDOOR AIR SYSTEM 7,NODE 107,NODE 116,Air Nodes
 Component Set,6,BRANCH,SYS_3_PSZ ALL_ST=WHOLEBUILDING_FL=STORY 1_SCH=A 1 MAIN BRANCH,COILSYSTEM:COOLING:DX,COIL COOLING DX SINGLE SPEED 7 170KBTU/HR 9.08EER COILSYSTEM,NODE 116,NODE 115,Air Nodes
 Component Set,7,BRANCH,SYS_3_PSZ ALL_ST=WHOLEBUILDING_FL=STORY 1_SCH=A 1 MAIN BRANCH,COIL:HEATING:FUEL,COIL HEATING GAS 7,NODE 115,NODE 114,Air Nodes
 Component Set,8,BRANCH,SYS_3_PSZ ALL_ST=WHOLEBUILDING_FL=STORY 1_SCH=A 1 MAIN BRANCH,FAN:CONSTANTVOLUME,FAN CONSTANT VOLUME 7,NODE 114,NODE 108,Air Nodes
 Component Set,9,BRANCH,SYS_3_PSZ ALL_ST=WHOLEBUILDING_FL=STORY 1_SCH=A 2 MAIN BRANCH,AIRLOOPHVAC:OUTDOORAIRSYSTEM,AIR LOOP HVAC OUTDOOR AIR SYSTEM 8,NODE 121,NODE 130,Air Nodes
 Component Set,10,BRANCH,SYS_3_PSZ ALL_ST=WHOLEBUILDING_FL=STORY 1_SCH=A 2 MAIN BRANCH,COILSYSTEM:COOLING:DX,COIL COOLING DX SINGLE SPEED 8 57KBTU/HR 14.0SEER COILSYSTEM,NODE 130,NODE 129,Air Nodes
 Component Set,11,BRANCH,SYS_3_PSZ ALL_ST=WHOLEBUILDING_FL=STORY 1_SCH=A 2 MAIN BRANCH,COIL:HEATING:FUEL,COIL HEATING GAS 8,NODE 129,NODE 128,Air Nodes
 Component Set,12,BRANCH,SYS_3_PSZ ALL_ST=WHOLEBUILDING_FL=STORY 1_SCH=A 2 MAIN BRANCH,FAN:CONSTANTVOLUME,FAN CONSTANT VOLUME 8,NODE 128,NODE 122,Air Nodes
 Component Set,13,BRANCH,SYS_3_PSZ ALL_ST=WHOLEBUILDING_FL=STORY 1_SCH=A 3 MAIN BRANCH,AIRLOOPHVAC:OUTDOORAIRSYSTEM,AIR LOOP HVAC OUTDOOR AIR SYSTEM 9,NODE 135,NODE 144,Air Nodes
 Component Set,14,BRANCH,SYS_3_PSZ ALL_ST=WHOLEBUILDING_FL=STORY 1_SCH=A 3 MAIN BRANCH,COILSYSTEM:COOLING:DX,COIL COOLING DX SINGLE SPEED 9 85KBTU/HR 9.26EER COILSYSTEM,NODE 144,NODE 143,Air Nodes
 Component Set,15,BRANCH,SYS_3_PSZ ALL_ST=WHOLEBUILDING_FL=STORY 1_SCH=A 3 MAIN BRANCH,COIL:HEATING:FUEL,COIL HEATING GAS 9,NODE 143,NODE 142,Air Nodes
 Component Set,16,BRANCH,SYS_3_PSZ ALL_ST=WHOLEBUILDING_FL=STORY 1_SCH=A 3 MAIN BRANCH,FAN:CONSTANTVOLUME,FAN CONSTANT VOLUME 9,NODE 142,NODE 136,Air Nodes
 Component Set,17,BRANCH,SYS_3_PSZ ALL_ST=WHOLEBUILDING_FL=STORY 1_SCH=A 4 MAIN BRANCH,AIRLOOPHVAC:OUTDOORAIRSYSTEM,AIR LOOP HVAC OUTDOOR AIR SYSTEM 10,NODE 149,NODE 158,Air Nodes
 Component Set,18,BRANCH,SYS_3_PSZ ALL_ST=WHOLEBUILDING_FL=STORY 1_SCH=A 4 MAIN BRANCH,COILSYSTEM:COOLING:DX,COIL COOLING DX SINGLE SPEED 10 150KBTU/HR 9.08EER COILSYSTEM,NODE 158,NODE 157,Air Nodes
 Component Set,19,BRANCH,SYS_3_PSZ ALL_ST=WHOLEBUILDING_FL=STORY 1_SCH=A 4 MAIN BRANCH,COIL:HEATING:FUEL,COIL HEATING GAS 10,NODE 157,NODE 156,Air Nodes
 Component Set,20,BRANCH,SYS_3_PSZ ALL_ST=WHOLEBUILDING_FL=STORY 1_SCH=A 4 MAIN BRANCH,FAN:CONSTANTVOLUME,FAN CONSTANT VOLUME 10,NODE 156,NODE 150,Air Nodes
 Component Set,21,BRANCH,SYS_3_PSZ ALL_ST=WHOLEBUILDING_FL=STORY 2_SCH=A MAIN BRANCH,AIRLOOPHVAC:OUTDOORAIRSYSTEM,AIR LOOP HVAC OUTDOOR AIR SYSTEM 1,NODE 21,NODE 33,Air Nodes
 Component Set,22,BRANCH,SYS_3_PSZ ALL_ST=WHOLEBUILDING_FL=STORY 2_SCH=A MAIN BRANCH,COILSYSTEM:COOLING:DX,COIL COOLING DX SINGLE SPEED 1 187KBTU/HR 9.08EER COILSYSTEM,NODE 33,NODE 32,Air Nodes
 Component Set,23,BRANCH,SYS_3_PSZ ALL_ST=WHOLEBUILDING_FL=STORY 2_SCH=A MAIN BRANCH,COIL:HEATING:FUEL,COIL HEATING GAS 1,NODE 32,NODE 31,Air Nodes
 Component Set,24,BRANCH,SYS_3_PSZ ALL_ST=WHOLEBUILDING_FL=STORY 2_SCH=A MAIN BRANCH,FAN:CONSTANTVOLUME,FAN CONSTANT VOLUME 1,NODE 31,NODE 23,Air Nodes
 Component Set,25,BRANCH,SYS_3_PSZ ALL_ST=WHOLEBUILDING_FL=STORY 2_SCH=A 1 MAIN BRANCH,AIRLOOPHVAC:OUTDOORAIRSYSTEM,AIR LOOP HVAC OUTDOOR AIR SYSTEM 2,NODE 37,NODE 46,Air Nodes
 Component Set,26,BRANCH,SYS_3_PSZ ALL_ST=WHOLEBUILDING_FL=STORY 2_SCH=A 1 MAIN BRANCH,COILSYSTEM:COOLING:DX,COIL COOLING DX SINGLE SPEED 2 91KBTU/HR 9.26EER COILSYSTEM,NODE 46,NODE 45,Air Nodes
 Component Set,27,BRANCH,SYS_3_PSZ ALL_ST=WHOLEBUILDING_FL=STORY 2_SCH=A 1 MAIN BRANCH,COIL:HEATING:FUEL,COIL HEATING GAS 2,NODE 45,NODE 44,Air Nodes
 Component Set,28,BRANCH,SYS_3_PSZ ALL_ST=WHOLEBUILDING_FL=STORY 2_SCH=A 1 MAIN BRANCH,FAN:CONSTANTVOLUME,FAN CONSTANT VOLUME 2,NODE 44,NODE 38,Air Nodes
 Component Set,29,BRANCH,SYS_3_PSZ ALL_ST=WHOLEBUILDING_FL=STORY 2_SCH=A 2 MAIN BRANCH,AIRLOOPHVAC:OUTDOORAIRSYSTEM,AIR LOOP HVAC OUTDOOR AIR SYSTEM 3,NODE 51,NODE 60,Air Nodes
 Component Set,30,BRANCH,SYS_3_PSZ ALL_ST=WHOLEBUILDING_FL=STORY 2_SCH=A 2 MAIN BRANCH,COILSYSTEM:COOLING:DX,COIL COOLING DX SINGLE SPEED 3 208KBTU/HR 9.08EER COILSYSTEM,NODE 60,NODE 59,Air Nodes
 Component Set,31,BRANCH,SYS_3_PSZ ALL_ST=WHOLEBUILDING_FL=STORY 2_SCH=A 2 MAIN BRANCH,COIL:HEATING:FUEL,COIL HEATING GAS 3,NODE 59,NODE 58,Air Nodes
 Component Set,32,BRANCH,SYS_3_PSZ ALL_ST=WHOLEBUILDING_FL=STORY 2_SCH=A 2 MAIN BRANCH,FAN:CONSTANTVOLUME,FAN CONSTANT VOLUME 3,NODE 58,NODE 52,Air Nodes
 Component Set,33,BRANCH,SYS_3_PSZ ALL_ST=WHOLEBUILDING_FL=STORY 2_SCH=A 3 MAIN BRANCH,AIRLOOPHVAC:OUTDOORAIRSYSTEM,AIR LOOP HVAC OUTDOOR AIR SYSTEM 4,NODE 65,NODE 74,Air Nodes
 Component Set,34,BRANCH,SYS_3_PSZ ALL_ST=WHOLEBUILDING_FL=STORY 2_SCH=A 3 MAIN BRANCH,COILSYSTEM:COOLING:DX,COIL COOLING DX SINGLE SPEED 4 128KBTU/HR 9.26EER COILSYSTEM,NODE 74,NODE 73,Air Nodes
 Component Set,35,BRANCH,SYS_3_PSZ ALL_ST=WHOLEBUILDING_FL=STORY 2_SCH=A 3 MAIN BRANCH,COIL:HEATING:FUEL,COIL HEATING GAS 4,NODE 73,NODE 72,Air Nodes
 Component Set,36,BRANCH,SYS_3_PSZ ALL_ST=WHOLEBUILDING_FL=STORY 2_SCH=A 3 MAIN BRANCH,FAN:CONSTANTVOLUME,FAN CONSTANT VOLUME 4,NODE 72,NODE 66,Air Nodes
 Component Set,37,BRANCH,SYS_3_PSZ ALL_ST=WHOLEBUILDING_FL=STORY 2_SCH=A 4 MAIN BRANCH,AIRLOOPHVAC:OUTDOORAIRSYSTEM,AIR LOOP HVAC OUTDOOR AIR SYSTEM 6,NODE 93,NODE 102,Air Nodes
 Component Set,38,BRANCH,SYS_3_PSZ ALL_ST=WHOLEBUILDING_FL=STORY 2_SCH=A 4 MAIN BRANCH,COILSYSTEM:COOLING:DX,COIL COOLING DX SINGLE SPEED 6 1134KBTU/HR 7.94EER COILSYSTEM,NODE 102,NODE 101,Air Nodes
 Component Set,39,BRANCH,SYS_3_PSZ ALL_ST=WHOLEBUILDING_FL=STORY 2_SCH=A 4 MAIN BRANCH,COIL:HEATING:FUEL,COIL HEATING GAS 6,NODE 101,NODE 100,Air Nodes
 Component Set,40,BRANCH,SYS_3_PSZ ALL_ST=WHOLEBUILDING_FL=STORY 2_SCH=A 4 MAIN BRANCH,FAN:CONSTANTVOLUME,FAN CONSTANT VOLUME 6,NODE 100,NODE 94,Air Nodes
 Component Set,41,BRANCH,HOT WATER LOOP SUPPLY INLET BRANCH,PUMP:VARIABLESPEED,PUMP VARIABLE SPEED 1,NODE 2,NODE 11,Water Nodes
 Component Set,42,BRANCH,HOT WATER LOOP SUPPLY BRANCH 1,BOILER:HOTWATER,PRIMARY BOILER 1444KBTU/HR 0.83 THERMAL EFF,NODE 5,NODE 12,Hot Water Nodes
 Component Set,43,BRANCH,HOT WATER LOOP SUPPLY BRANCH 2,BOILER:HOTWATER,SECONDARY BOILER 0KBTU/HR 0.85 AFUE,NODE 14,NODE 15,Hot Water Nodes
 Component Set,44,BRANCH,HOT WATER LOOP SUPPLY BRANCH 3,PIPE:ADIABATIC,PIPE ADIABATIC 1,NODE 17,NODE 18,Pipe Nodes
 Component Set,45,BRANCH,HOT WATER LOOP SUPPLY OUTLET BRANCH,PIPE:ADIABATIC,PIPE ADIABATIC 2,NODE 20,NODE 3,Pipe Nodes
 Component Set,46,BRANCH,HOT WATER LOOP DEMAND INLET BRANCH,PIPE:ADIABATIC,HOT WATER LOOP DEMAND INLET PIPE,NODE 6,HOT WATER LOOP DEMAND INLET PIPE NODE,Pipe Nodes
 Component Set,47,BRANCH,HOT WATER LOOP DEMAND BRANCH 1,ZONEHVAC:BASEBOARD:CONVECTIVE:WATER,ZONE HVAC BASEBOARD CONVECTIVE WATER 1,NODE 9,NODE 36,Hot Water Nodes
 Component Set,48,BRANCH,HOT WATER LOOP DEMAND BRANCH 2,ZONEHVAC:BASEBOARD:CONVECTIVE:WATER,ZONE HVAC BASEBOARD CONVECTIVE WATER 2,NODE 49,NODE 50,Hot Water Nodes
 Component Set,49,BRANCH,HOT WATER LOOP DEMAND BRANCH 3,ZONEHVAC:BASEBOARD:CONVECTIVE:WATER,ZONE HVAC BASEBOARD CONVECTIVE WATER 3,NODE 63,NODE 64,Hot Water Nodes
 Component Set,50,BRANCH,HOT WATER LOOP DEMAND BRANCH 4,ZONEHVAC:BASEBOARD:CONVECTIVE:WATER,ZONE HVAC BASEBOARD CONVECTIVE WATER 4,NODE 77,NODE 78,Hot Water Nodes
 Component Set,51,BRANCH,HOT WATER LOOP DEMAND BRANCH 5,ZONEHVAC:BASEBOARD:CONVECTIVE:WATER,ZONE HVAC BASEBOARD CONVECTIVE WATER 5,NODE 91,NODE 92,Hot Water Nodes
 Component Set,52,BRANCH,HOT WATER LOOP DEMAND BRANCH 6,ZONEHVAC:BASEBOARD:CONVECTIVE:WATER,ZONE HVAC BASEBOARD CONVECTIVE WATER 6,NODE 105,NODE 106,Hot Water Nodes
 Component Set,53,BRANCH,HOT WATER LOOP DEMAND BRANCH 7,ZONEHVAC:BASEBOARD:CONVECTIVE:WATER,ZONE HVAC BASEBOARD CONVECTIVE WATER 7,NODE 119,NODE 120,Hot Water Nodes
 Component Set,54,BRANCH,HOT WATER LOOP DEMAND BRANCH 8,ZONEHVAC:BASEBOARD:CONVECTIVE:WATER,ZONE HVAC BASEBOARD CONVECTIVE WATER 8,NODE 133,NODE 134,Hot Water Nodes
 Component Set,55,BRANCH,HOT WATER LOOP DEMAND BRANCH 9,ZONEHVAC:BASEBOARD:CONVECTIVE:WATER,ZONE HVAC BASEBOARD CONVECTIVE WATER 9,NODE 147,NODE 148,Hot Water Nodes
 Component Set,56,BRANCH,HOT WATER LOOP DEMAND BRANCH 10,ZONEHVAC:BASEBOARD:CONVECTIVE:WATER,ZONE HVAC BASEBOARD CONVECTIVE WATER 10,NODE 161,NODE 162,Hot Water Nodes
 Component Set,57,BRANCH,HOT WATER LOOP DEMAND BYPASS BRANCH,PIPE:ADIABATIC,HOT WATER LOOP DEMAND BYPASS PIPE,HOT WATER LOOP DEMAND BYPASS PIPE INLET NODE,HOT WATER LOOP DEMAND BYPASS PIPE OUTLET NODE,Pipe Nodes
 Component Set,58,BRANCH,HOT WATER LOOP DEMAND OUTLET BRANCH,PIPE:ADIABATIC,HOT WATER LOOP DEMAND OUTLET PIPE,HOT WATER LOOP DEMAND OUTLET PIPE NODE,NODE 8,Pipe Nodes
 Component Set,59,BRANCH,MAIN SERVICE WATER LOOP SUPPLY INLET BRANCH,PUMP:CONSTANTSPEED,MAIN SERVICE WATER LOOP CIRCULATOR PUMP,NODE 163,NODE 169,Water Nodes
 Component Set,60,BRANCH,MAIN SERVICE WATER LOOP SUPPLY BRANCH 1,WATERHEATER:MIXED,400GAL NATURALGAS WATER HEATER - 270KBTU/HR 0.808 THERM EFF,NODE 165,NODE 170,Use Side Water Nodes
 Component Set,61,BRANCH,MAIN SERVICE WATER LOOP SUPPLY BRANCH 2,PIPE:ADIABATIC,PIPE ADIABATIC 3,NODE 171,NODE 172,Pipe Nodes
 Component Set,62,BRANCH,MAIN SERVICE WATER LOOP SUPPLY OUTLET BRANCH,PIPE:ADIABATIC,PIPE ADIABATIC 5,NODE 174,NODE 164,Pipe Nodes
 Component Set,63,BRANCH,MAIN SERVICE WATER LOOP DEMAND INLET BRANCH,PIPE:ADIABATIC,MAIN SERVICE WATER LOOP DEMAND INLET PIPE,NODE 166,MAIN SERVICE WATER LOOP DEMAND INLET PIPE NODE,Pipe Nodes
 Component Set,64,BRANCH,MAIN SERVICE WATER LOOP DEMAND BRANCH 1,PIPE:ADIABATIC,PIPE ADIABATIC 4,NODE 168,NODE 173,Pipe Nodes
 Component Set,65,BRANCH,MAIN SERVICE WATER LOOP DEMAND BRANCH 2,WATERUSE:CONNECTIONS,WATER USE CONNECTIONS 1,NODE 176,NODE 177,DHW Nodes
 Component Set,66,BRANCH,MAIN SERVICE WATER LOOP DEMAND BRANCH 3,WATERUSE:CONNECTIONS,WATER USE CONNECTIONS 2,NODE 178,NODE 179,DHW Nodes
 Component Set,67,BRANCH,MAIN SERVICE WATER LOOP DEMAND BRANCH 4,WATERUSE:CONNECTIONS,WATER USE CONNECTIONS 3,NODE 180,NODE 181,DHW Nodes
 Component Set,68,BRANCH,MAIN SERVICE WATER LOOP DEMAND BRANCH 5,WATERUSE:CONNECTIONS,WATER USE CONNECTIONS 4,NODE 182,NODE 183,DHW Nodes
 Component Set,69,BRANCH,MAIN SERVICE WATER LOOP DEMAND BRANCH 6,WATERUSE:CONNECTIONS,WATER USE CONNECTIONS 5,NODE 184,NODE 185,DHW Nodes
 Component Set,70,BRANCH,MAIN SERVICE WATER LOOP DEMAND BRANCH 7,WATERUSE:CONNECTIONS,WATER USE CONNECTIONS 6,NODE 186,NODE 187,DHW Nodes
 Component Set,71,BRANCH,MAIN SERVICE WATER LOOP DEMAND BRANCH 8,WATERUSE:CONNECTIONS,WATER USE CONNECTIONS 7,NODE 188,NODE 189,DHW Nodes
 Component Set,72,BRANCH,MAIN SERVICE WATER LOOP DEMAND BRANCH 9,WATERUSE:CONNECTIONS,WATER USE CONNECTIONS 8,NODE 190,NODE 191,DHW Nodes
 Component Set,73,BRANCH,MAIN SERVICE WATER LOOP DEMAND BRANCH 10,WATERUSE:CONNECTIONS,WATER USE CONNECTIONS 9,NODE 192,NODE 193,DHW Nodes
 Component Set,74,BRANCH,MAIN SERVICE WATER LOOP DEMAND BRANCH 11,WATERUSE:CONNECTIONS,WATER USE CONNECTIONS 10,NODE 194,NODE 195,DHW Nodes
 Component Set,75,BRANCH,MAIN SERVICE WATER LOOP DEMAND BYPASS BRANCH,PIPE:ADIABATIC,MAIN SERVICE WATER LOOP DEMAND BYPASS PIPE,MAIN SERVICE WATER LOOP DEMAND BYPASS PIPE INLET NODE,MAIN SERVICE WATER LOOP DEMAND BYPASS PIPE OUTLET NODE,Pipe Nodes
 Component Set,76,BRANCH,MAIN SERVICE WATER LOOP DEMAND OUTLET BRANCH,PIPE:ADIABATIC,PIPE ADIABATIC 6,NODE 175,NODE 167,Pipe Nodes
 Component Set,77,ZONEHVAC:AIRDISTRIBUTIONUNIT,ADU AIR TERMINAL SINGLE DUCT CONSTANT VOLUME NO REHEAT 5,AIRTERMINAL:SINGLEDUCT:CONSTANTVOLUME:NOREHEAT,AIR TERMINAL SINGLE DUCT CONSTANT VOLUME NO REHEAT 5,NODE 90,NODE 83,Air Nodes
 Component Set,78,ZONEHVAC:AIRDISTRIBUTIONUNIT,ADU AIR TERMINAL SINGLE DUCT CONSTANT VOLUME NO REHEAT 7,AIRTERMINAL:SINGLEDUCT:CONSTANTVOLUME:NOREHEAT,AIR TERMINAL SINGLE DUCT CONSTANT VOLUME NO REHEAT 7,NODE 118,NODE 111,Air Nodes
 Component Set,79,ZONEHVAC:AIRDISTRIBUTIONUNIT,ADU AIR TERMINAL SINGLE DUCT CONSTANT VOLUME NO REHEAT 8,AIRTERMINAL:SINGLEDUCT:CONSTANTVOLUME:NOREHEAT,AIR TERMINAL SINGLE DUCT CONSTANT VOLUME NO REHEAT 8,NODE 132,NODE 125,Air Nodes
 Component Set,80,ZONEHVAC:AIRDISTRIBUTIONUNIT,ADU AIR TERMINAL SINGLE DUCT CONSTANT VOLUME NO REHEAT 9,AIRTERMINAL:SINGLEDUCT:CONSTANTVOLUME:NOREHEAT,AIR TERMINAL SINGLE DUCT CONSTANT VOLUME NO REHEAT 9,NODE 146,NODE 139,Air Nodes
 Component Set,81,ZONEHVAC:AIRDISTRIBUTIONUNIT,ADU AIR TERMINAL SINGLE DUCT CONSTANT VOLUME NO REHEAT 10,AIRTERMINAL:SINGLEDUCT:CONSTANTVOLUME:NOREHEAT,AIR TERMINAL SINGLE DUCT CONSTANT VOLUME NO REHEAT 10,NODE 160,NODE 153,Air Nodes
 Component Set,82,ZONEHVAC:AIRDISTRIBUTIONUNIT,ADU AIR TERMINAL SINGLE DUCT CONSTANT VOLUME NO REHEAT 1,AIRTERMINAL:SINGLEDUCT:CONSTANTVOLUME:NOREHEAT,AIR TERMINAL SINGLE DUCT CONSTANT VOLUME NO REHEAT 1,NODE 35,NODE 27,Air Nodes
 Component Set,83,ZONEHVAC:AIRDISTRIBUTIONUNIT,ADU AIR TERMINAL SINGLE DUCT CONSTANT VOLUME NO REHEAT 2,AIRTERMINAL:SINGLEDUCT:CONSTANTVOLUME:NOREHEAT,AIR TERMINAL SINGLE DUCT CONSTANT VOLUME NO REHEAT 2,NODE 48,NODE 41,Air Nodes
 Component Set,84,ZONEHVAC:AIRDISTRIBUTIONUNIT,ADU AIR TERMINAL SINGLE DUCT CONSTANT VOLUME NO REHEAT 3,AIRTERMINAL:SINGLEDUCT:CONSTANTVOLUME:NOREHEAT,AIR TERMINAL SINGLE DUCT CONSTANT VOLUME NO REHEAT 3,NODE 62,NODE 55,Air Nodes
 Component Set,85,ZONEHVAC:AIRDISTRIBUTIONUNIT,ADU AIR TERMINAL SINGLE DUCT CONSTANT VOLUME NO REHEAT 4,AIRTERMINAL:SINGLEDUCT:CONSTANTVOLUME:NOREHEAT,AIR TERMINAL SINGLE DUCT CONSTANT VOLUME NO REHEAT 4,NODE 76,NODE 69,Air Nodes
 Component Set,86,ZONEHVAC:AIRDISTRIBUTIONUNIT,ADU AIR TERMINAL SINGLE DUCT CONSTANT VOLUME NO REHEAT 6,AIRTERMINAL:SINGLEDUCT:CONSTANTVOLUME:NOREHEAT,AIR TERMINAL SINGLE DUCT CONSTANT VOLUME NO REHEAT 6,NODE 104,NODE 97,Air Nodes
 Component Set,87,AIRLOOPHVAC:OUTDOORAIRSYSTEM,AIR LOOP HVAC OUTDOOR AIR SYSTEM 5,HEATEXCHANGER:AIRTOAIR:SENSIBLEANDLATENT,SYS_3_PSZ ALL_ST=WHOLEBUILDING_FL=STORY 1_SCH=A ERV,NODE 84,NODE 197,Process Air Nodes
 Component Set,88,AIRLOOPHVAC:OUTDOORAIRSYSTEM,AIR LOOP HVAC OUTDOOR AIR SYSTEM 5,OUTDOORAIR:MIXER,AIR LOOP HVAC OUTDOOR AIR SYSTEM 5 OUTDOOR AIR MIXER,NODE 197,NODE 88,Air Nodes
 Component Set,89,AIRLOOPHVAC:OUTDOORAIRSYSTEM,AIR LOOP HVAC OUTDOOR AIR SYSTEM 7,HEATEXCHANGER:AIRTOAIR:SENSIBLEANDLATENT,SYS_3_PSZ ALL_ST=WHOLEBUILDING_FL=STORY 1_SCH=A 1 ERV,NODE 112,NODE 199,Process Air Nodes
 Component Set,90,AIRLOOPHVAC:OUTDOORAIRSYSTEM,AIR LOOP HVAC OUTDOOR AIR SYSTEM 7,OUTDOORAIR:MIXER,AIR LOOP HVAC OUTDOOR AIR SYSTEM 7 OUTDOOR AIR MIXER,NODE 199,NODE 116,Air Nodes
 Component Set,91,AIRLOOPHVAC:OUTDOORAIRSYSTEM,AIR LOOP HVAC OUTDOOR AIR SYSTEM 8,HEATEXCHANGER:AIRTOAIR:SENSIBLEANDLATENT,SYS_3_PSZ ALL_ST=WHOLEBUILDING_FL=STORY 1_SCH=A 2 ERV,NODE 126,NODE 201,Process Air Nodes
 Component Set,92,AIRLOOPHVAC:OUTDOORAIRSYSTEM,AIR LOOP HVAC OUTDOOR AIR SYSTEM 8,OUTDOORAIR:MIXER,AIR LOOP HVAC OUTDOOR AIR SYSTEM 8 OUTDOOR AIR MIXER,NODE 201,NODE 130,Air Nodes
 Component Set,93,AIRLOOPHVAC:OUTDOORAIRSYSTEM,AIR LOOP HVAC OUTDOOR AIR SYSTEM 9,HEATEXCHANGER:AIRTOAIR:SENSIBLEANDLATENT,SYS_3_PSZ ALL_ST=WHOLEBUILDING_FL=STORY 1_SCH=A 3 ERV,NODE 140,NODE 203,Process Air Nodes
 Component Set,94,AIRLOOPHVAC:OUTDOORAIRSYSTEM,AIR LOOP HVAC OUTDOOR AIR SYSTEM 9,OUTDOORAIR:MIXER,AIR LOOP HVAC OUTDOOR AIR SYSTEM 9 OUTDOOR AIR MIXER,NODE 203,NODE 144,Air Nodes
 Component Set,95,AIRLOOPHVAC:OUTDOORAIRSYSTEM,AIR LOOP HVAC OUTDOOR AIR SYSTEM 10,HEATEXCHANGER:AIRTOAIR:SENSIBLEANDLATENT,SYS_3_PSZ ALL_ST=WHOLEBUILDING_FL=STORY 1_SCH=A 4 ERV,NODE 154,NODE 205,Process Air Nodes
 Component Set,96,AIRLOOPHVAC:OUTDOORAIRSYSTEM,AIR LOOP HVAC OUTDOOR AIR SYSTEM 10,OUTDOORAIR:MIXER,AIR LOOP HVAC OUTDOOR AIR SYSTEM 10 OUTDOOR AIR MIXER,NODE 205,NODE 158,Air Nodes
 Component Set,97,AIRLOOPHVAC:OUTDOORAIRSYSTEM,AIR LOOP HVAC OUTDOOR AIR SYSTEM 1,HEATEXCHANGER:AIRTOAIR:SENSIBLEANDLATENT,SYS_3_PSZ ALL_ST=WHOLEBUILDING_FL=STORY 2_SCH=A ERV,NODE 29,NODE 207,Process Air Nodes
 Component Set,98,AIRLOOPHVAC:OUTDOORAIRSYSTEM,AIR LOOP HVAC OUTDOOR AIR SYSTEM 1,OUTDOORAIR:MIXER,AIR LOOP HVAC OUTDOOR AIR SYSTEM 1 OUTDOOR AIR MIXER,NODE 207,NODE 33,Air Nodes
 Component Set,99,AIRLOOPHVAC:OUTDOORAIRSYSTEM,AIR LOOP HVAC OUTDOOR AIR SYSTEM 2,HEATEXCHANGER:AIRTOAIR:SENSIBLEANDLATENT,SYS_3_PSZ ALL_ST=WHOLEBUILDING_FL=STORY 2_SCH=A 1 ERV,NODE 42,NODE 209,Process Air Nodes
 Component Set,100,AIRLOOPHVAC:OUTDOORAIRSYSTEM,AIR LOOP HVAC OUTDOOR AIR SYSTEM 2,OUTDOORAIR:MIXER,AIR LOOP HVAC OUTDOOR AIR SYSTEM 2 OUTDOOR AIR MIXER,NODE 209,NODE 46,Air Nodes
 Component Set,101,AIRLOOPHVAC:OUTDOORAIRSYSTEM,AIR LOOP HVAC OUTDOOR AIR SYSTEM 3,HEATEXCHANGER:AIRTOAIR:SENSIBLEANDLATENT,SYS_3_PSZ ALL_ST=WHOLEBUILDING_FL=STORY 2_SCH=A 2 ERV,NODE 56,NODE 211,Process Air Nodes
 Component Set,102,AIRLOOPHVAC:OUTDOORAIRSYSTEM,AIR LOOP HVAC OUTDOOR AIR SYSTEM 3,OUTDOORAIR:MIXER,AIR LOOP HVAC OUTDOOR AIR SYSTEM 3 OUTDOOR AIR MIXER,NODE 211,NODE 60,Air Nodes
 Component Set,103,AIRLOOPHVAC:OUTDOORAIRSYSTEM,AIR LOOP HVAC OUTDOOR AIR SYSTEM 4,HEATEXCHANGER:AIRTOAIR:SENSIBLEANDLATENT,SYS_3_PSZ ALL_ST=WHOLEBUILDING_FL=STORY 2_SCH=A 3 ERV,NODE 70,NODE 213,Process Air Nodes
 Component Set,104,AIRLOOPHVAC:OUTDOORAIRSYSTEM,AIR LOOP HVAC OUTDOOR AIR SYSTEM 4,OUTDOORAIR:MIXER,AIR LOOP HVAC OUTDOOR AIR SYSTEM 4 OUTDOOR AIR MIXER,NODE 213,NODE 74,Air Nodes
 Component Set,105,AIRLOOPHVAC:OUTDOORAIRSYSTEM,AIR LOOP HVAC OUTDOOR AIR SYSTEM 6,HEATEXCHANGER:AIRTOAIR:SENSIBLEANDLATENT,SYS_3_PSZ ALL_ST=WHOLEBUILDING_FL=STORY 2_SCH=A 4 ERV,NODE 98,NODE 215,Process Air Nodes
 Component Set,106,AIRLOOPHVAC:OUTDOORAIRSYSTEM,AIR LOOP HVAC OUTDOOR AIR SYSTEM 6,OUTDOORAIR:MIXER,AIR LOOP HVAC OUTDOOR AIR SYSTEM 6 OUTDOOR AIR MIXER,NODE 215,NODE 102,Air Nodes
 Component Set,107,COILSYSTEM:COOLING:DX,COIL COOLING DX SINGLE SPEED 5 654KBTU/HR 8.21EER COILSYSTEM,COIL:COOLING:DX:SINGLESPEED,COIL COOLING DX SINGLE SPEED 5 654KBTU/HR 8.21EER,NODE 88,NODE 87,Air Nodes
 Component Set,108,COILSYSTEM:COOLING:DX,COIL COOLING DX SINGLE SPEED 7 170KBTU/HR 9.08EER COILSYSTEM,COIL:COOLING:DX:SINGLESPEED,COIL COOLING DX SINGLE SPEED 7 170KBTU/HR 9.08EER,NODE 116,NODE 115,Air Nodes
 Component Set,109,COILSYSTEM:COOLING:DX,COIL COOLING DX SINGLE SPEED 8 57KBTU/HR 14.0SEER COILSYSTEM,COIL:COOLING:DX:SINGLESPEED,COIL COOLING DX SINGLE SPEED 8 57KBTU/HR 14.0SEER,NODE 130,NODE 129,Air Nodes
 Component Set,110,COILSYSTEM:COOLING:DX,COIL COOLING DX SINGLE SPEED 9 85KBTU/HR 9.26EER COILSYSTEM,COIL:COOLING:DX:SINGLESPEED,COIL COOLING DX SINGLE SPEED 9 85KBTU/HR 9.26EER,NODE 144,NODE 143,Air Nodes
 Component Set,111,COILSYSTEM:COOLING:DX,COIL COOLING DX SINGLE SPEED 10 150KBTU/HR 9.08EER COILSYSTEM,COIL:COOLING:DX:SINGLESPEED,COIL COOLING DX SINGLE SPEED 10 150KBTU/HR 9.08EER,NODE 158,NODE 157,Air Nodes
 Component Set,112,COILSYSTEM:COOLING:DX,COIL COOLING DX SINGLE SPEED 1 187KBTU/HR 9.08EER COILSYSTEM,COIL:COOLING:DX:SINGLESPEED,COIL COOLING DX SINGLE SPEED 1 187KBTU/HR 9.08EER,NODE 33,NODE 32,Air Nodes
 Component Set,113,COILSYSTEM:COOLING:DX,COIL COOLING DX SINGLE SPEED 2 91KBTU/HR 9.26EER COILSYSTEM,COIL:COOLING:DX:SINGLESPEED,COIL COOLING DX SINGLE SPEED 2 91KBTU/HR 9.26EER,NODE 46,NODE 45,Air Nodes
 Component Set,114,COILSYSTEM:COOLING:DX,COIL COOLING DX SINGLE SPEED 3 208KBTU/HR 9.08EER COILSYSTEM,COIL:COOLING:DX:SINGLESPEED,COIL COOLING DX SINGLE SPEED 3 208KBTU/HR 9.08EER,NODE 60,NODE 59,Air Nodes
 Component Set,115,COILSYSTEM:COOLING:DX,COIL COOLING DX SINGLE SPEED 4 128KBTU/HR 9.26EER COILSYSTEM,COIL:COOLING:DX:SINGLESPEED,COIL COOLING DX SINGLE SPEED 4 128KBTU/HR 9.26EER,NODE 74,NODE 73,Air Nodes
 Component Set,116,COILSYSTEM:COOLING:DX,COIL COOLING DX SINGLE SPEED 6 1134KBTU/HR 7.94EER COILSYSTEM,COIL:COOLING:DX:SINGLESPEED,COIL COOLING DX SINGLE SPEED 6 1134KBTU/HR 7.94EER,NODE 102,NODE 101,Air Nodes
! ===============================================================
! <# Plant Loops>,<Number of Plant Loops>
 #Plant Loops,2
! <Plant Loop>,<Plant Loop Name>,<Loop Type>,<Inlet Node Name>,<Outlet Node Name>,<Branch List>,<Connector List>
! <Plant Loop Connector>,<Connector Type>,<Connector Name>,<Loop Name>,<Loop Type>,<Number of Inlets/Outlets>
! <Plant Loop Connector Branches>,<Connector Node Count>,<Connector Type>,<Connector Name>,<Inlet Branch>,<Outlet Branch>,<Loop Name>,<Loop Type>
! <Plant Loop Connector Nodes>,<Connector Node Count>,<Connector Type>,<Connector Name>,<Inlet Node>,<Outlet Node>,<Loop Name>,<Loop Type>
! <Plant Loop Supply Connection>,<Plant Loop Name>,<Supply Side Outlet Node Name>,<Demand Side Inlet Node Name>
! <Plant Loop Return Connection>,<Plant Loop Name>,<Demand Side Outlet Node Name>,<Supply Side Inlet Node Name>
 Plant Loop,HOT WATER LOOP,Demand,NODE 6,NODE 8,HOT WATER LOOP DEMAND BRANCHES,HOT WATER LOOP DEMAND CONNECTOR LIST
   Plant Loop Connector,Splitter,HOT WATER LOOP DEMAND SPLITTER,HOT WATER LOOP,Demand,11
     Plant Loop Connector Branches,1,Splitter,HOT WATER LOOP DEMAND SPLITTER,HOT WATER LOOP DEMAND INLET BRANCH,HOT WATER LOOP DEMAND BRANCH 1,HOT WATER LOOP,Demand
     Plant Loop Connector Nodes,   1,Splitter,HOT WATER LOOP DEMAND SPLITTER,HOT WATER LOOP DEMAND INLET PIPE NODE,NODE 9,HOT WATER LOOP,Demand
     Plant Loop Connector Branches,2,Splitter,HOT WATER LOOP DEMAND SPLITTER,HOT WATER LOOP DEMAND INLET BRANCH,HOT WATER LOOP DEMAND BRANCH 2,HOT WATER LOOP,Demand
     Plant Loop Connector Nodes,   2,Splitter,HOT WATER LOOP DEMAND SPLITTER,HOT WATER LOOP DEMAND INLET PIPE NODE,NODE 49,HOT WATER LOOP,Demand
     Plant Loop Connector Branches,3,Splitter,HOT WATER LOOP DEMAND SPLITTER,HOT WATER LOOP DEMAND INLET BRANCH,HOT WATER LOOP DEMAND BRANCH 3,HOT WATER LOOP,Demand
     Plant Loop Connector Nodes,   3,Splitter,HOT WATER LOOP DEMAND SPLITTER,HOT WATER LOOP DEMAND INLET PIPE NODE,NODE 63,HOT WATER LOOP,Demand
     Plant Loop Connector Branches,4,Splitter,HOT WATER LOOP DEMAND SPLITTER,HOT WATER LOOP DEMAND INLET BRANCH,HOT WATER LOOP DEMAND BRANCH 4,HOT WATER LOOP,Demand
     Plant Loop Connector Nodes,   4,Splitter,HOT WATER LOOP DEMAND SPLITTER,HOT WATER LOOP DEMAND INLET PIPE NODE,NODE 77,HOT WATER LOOP,Demand
     Plant Loop Connector Branches,5,Splitter,HOT WATER LOOP DEMAND SPLITTER,HOT WATER LOOP DEMAND INLET BRANCH,HOT WATER LOOP DEMAND BRANCH 5,HOT WATER LOOP,Demand
     Plant Loop Connector Nodes,   5,Splitter,HOT WATER LOOP DEMAND SPLITTER,HOT WATER LOOP DEMAND INLET PIPE NODE,NODE 91,HOT WATER LOOP,Demand
     Plant Loop Connector Branches,6,Splitter,HOT WATER LOOP DEMAND SPLITTER,HOT WATER LOOP DEMAND INLET BRANCH,HOT WATER LOOP DEMAND BRANCH 6,HOT WATER LOOP,Demand
     Plant Loop Connector Nodes,   6,Splitter,HOT WATER LOOP DEMAND SPLITTER,HOT WATER LOOP DEMAND INLET PIPE NODE,NODE 105,HOT WATER LOOP,Demand
     Plant Loop Connector Branches,7,Splitter,HOT WATER LOOP DEMAND SPLITTER,HOT WATER LOOP DEMAND INLET BRANCH,HOT WATER LOOP DEMAND BRANCH 7,HOT WATER LOOP,Demand
     Plant Loop Connector Nodes,   7,Splitter,HOT WATER LOOP DEMAND SPLITTER,HOT WATER LOOP DEMAND INLET PIPE NODE,NODE 119,HOT WATER LOOP,Demand
     Plant Loop Connector Branches,8,Splitter,HOT WATER LOOP DEMAND SPLITTER,HOT WATER LOOP DEMAND INLET BRANCH,HOT WATER LOOP DEMAND BRANCH 8,HOT WATER LOOP,Demand
     Plant Loop Connector Nodes,   8,Splitter,HOT WATER LOOP DEMAND SPLITTER,HOT WATER LOOP DEMAND INLET PIPE NODE,NODE 133,HOT WATER LOOP,Demand
     Plant Loop Connector Branches,9,Splitter,HOT WATER LOOP DEMAND SPLITTER,HOT WATER LOOP DEMAND INLET BRANCH,HOT WATER LOOP DEMAND BRANCH 9,HOT WATER LOOP,Demand
     Plant Loop Connector Nodes,   9,Splitter,HOT WATER LOOP DEMAND SPLITTER,HOT WATER LOOP DEMAND INLET PIPE NODE,NODE 147,HOT WATER LOOP,Demand
     Plant Loop Connector Branches,10,Splitter,HOT WATER LOOP DEMAND SPLITTER,HOT WATER LOOP DEMAND INLET BRANCH,HOT WATER LOOP DEMAND BRANCH 10,HOT WATER LOOP,Demand
     Plant Loop Connector Nodes,   10,Splitter,HOT WATER LOOP DEMAND SPLITTER,HOT WATER LOOP DEMAND INLET PIPE NODE,NODE 161,HOT WATER LOOP,Demand
     Plant Loop Connector Branches,11,Splitter,HOT WATER LOOP DEMAND SPLITTER,HOT WATER LOOP DEMAND INLET BRANCH,HOT WATER LOOP DEMAND BYPASS BRANCH,HOT WATER LOOP,Demand
     Plant Loop Connector Nodes,   11,Splitter,HOT WATER LOOP DEMAND SPLITTER,HOT WATER LOOP DEMAND INLET PIPE NODE,HOT WATER LOOP DEMAND BYPASS PIPE INLET NODE,HOT WATER LOOP,Demand
   Plant Loop Connector,Mixer,HOT WATER LOOP DEMAND MIXER,HOT WATER LOOP,Demand,11
     Plant Loop Connector Branches,1,Mixer,HOT WATER LOOP DEMAND MIXER,HOT WATER LOOP DEMAND BRANCH 1,HOT WATER LOOP DEMAND OUTLET BRANCH,HOT WATER LOOP,Demand
     Plant Loop Connector Nodes,   1,Mixer,HOT WATER LOOP DEMAND MIXER,NODE 36,HOT WATER LOOP DEMAND OUTLET PIPE NODE,HOT WATER LOOP,Demand
     Plant Loop Connector Branches,2,Mixer,HOT WATER LOOP DEMAND MIXER,HOT WATER LOOP DEMAND BRANCH 2,HOT WATER LOOP DEMAND OUTLET BRANCH,HOT WATER LOOP,Demand
     Plant Loop Connector Nodes,   2,Mixer,HOT WATER LOOP DEMAND MIXER,NODE 50,HOT WATER LOOP DEMAND OUTLET PIPE NODE,HOT WATER LOOP,Demand
     Plant Loop Connector Branches,3,Mixer,HOT WATER LOOP DEMAND MIXER,HOT WATER LOOP DEMAND BRANCH 3,HOT WATER LOOP DEMAND OUTLET BRANCH,HOT WATER LOOP,Demand
     Plant Loop Connector Nodes,   3,Mixer,HOT WATER LOOP DEMAND MIXER,NODE 64,HOT WATER LOOP DEMAND OUTLET PIPE NODE,HOT WATER LOOP,Demand
     Plant Loop Connector Branches,4,Mixer,HOT WATER LOOP DEMAND MIXER,HOT WATER LOOP DEMAND BRANCH 4,HOT WATER LOOP DEMAND OUTLET BRANCH,HOT WATER LOOP,Demand
     Plant Loop Connector Nodes,   4,Mixer,HOT WATER LOOP DEMAND MIXER,NODE 78,HOT WATER LOOP DEMAND OUTLET PIPE NODE,HOT WATER LOOP,Demand
     Plant Loop Connector Branches,5,Mixer,HOT WATER LOOP DEMAND MIXER,HOT WATER LOOP DEMAND BRANCH 5,HOT WATER LOOP DEMAND OUTLET BRANCH,HOT WATER LOOP,Demand
     Plant Loop Connector Nodes,   5,Mixer,HOT WATER LOOP DEMAND MIXER,NODE 92,HOT WATER LOOP DEMAND OUTLET PIPE NODE,HOT WATER LOOP,Demand
     Plant Loop Connector Branches,6,Mixer,HOT WATER LOOP DEMAND MIXER,HOT WATER LOOP DEMAND BRANCH 6,HOT WATER LOOP DEMAND OUTLET BRANCH,HOT WATER LOOP,Demand
     Plant Loop Connector Nodes,   6,Mixer,HOT WATER LOOP DEMAND MIXER,NODE 106,HOT WATER LOOP DEMAND OUTLET PIPE NODE,HOT WATER LOOP,Demand
     Plant Loop Connector Branches,7,Mixer,HOT WATER LOOP DEMAND MIXER,HOT WATER LOOP DEMAND BRANCH 7,HOT WATER LOOP DEMAND OUTLET BRANCH,HOT WATER LOOP,Demand
     Plant Loop Connector Nodes,   7,Mixer,HOT WATER LOOP DEMAND MIXER,NODE 120,HOT WATER LOOP DEMAND OUTLET PIPE NODE,HOT WATER LOOP,Demand
     Plant Loop Connector Branches,8,Mixer,HOT WATER LOOP DEMAND MIXER,HOT WATER LOOP DEMAND BRANCH 8,HOT WATER LOOP DEMAND OUTLET BRANCH,HOT WATER LOOP,Demand
     Plant Loop Connector Nodes,   8,Mixer,HOT WATER LOOP DEMAND MIXER,NODE 134,HOT WATER LOOP DEMAND OUTLET PIPE NODE,HOT WATER LOOP,Demand
     Plant Loop Connector Branches,9,Mixer,HOT WATER LOOP DEMAND MIXER,HOT WATER LOOP DEMAND BRANCH 9,HOT WATER LOOP DEMAND OUTLET BRANCH,HOT WATER LOOP,Demand
     Plant Loop Connector Nodes,   9,Mixer,HOT WATER LOOP DEMAND MIXER,NODE 148,HOT WATER LOOP DEMAND OUTLET PIPE NODE,HOT WATER LOOP,Demand
     Plant Loop Connector Branches,10,Mixer,HOT WATER LOOP DEMAND MIXER,HOT WATER LOOP DEMAND BRANCH 10,HOT WATER LOOP DEMAND OUTLET BRANCH,HOT WATER LOOP,Demand
     Plant Loop Connector Nodes,   10,Mixer,HOT WATER LOOP DEMAND MIXER,NODE 162,HOT WATER LOOP DEMAND OUTLET PIPE NODE,HOT WATER LOOP,Demand
     Plant Loop Connector Branches,11,Mixer,HOT WATER LOOP DEMAND MIXER,HOT WATER LOOP DEMAND BYPASS BRANCH,HOT WATER LOOP DEMAND OUTLET BRANCH,HOT WATER LOOP,Demand
     Plant Loop Connector Nodes,   11,Mixer,HOT WATER LOOP DEMAND MIXER,HOT WATER LOOP DEMAND BYPASS PIPE OUTLET NODE,HOT WATER LOOP DEMAND OUTLET PIPE NODE,HOT WATER LOOP,Demand
 Plant Loop,HOT WATER LOOP,Supply,NODE 2,NODE 3,HOT WATER LOOP SUPPLY BRANCHES,HOT WATER LOOP SUPPLY CONNECTOR LIST
   Plant Loop Connector,Splitter,HOT WATER LOOP SUPPLY SPLITTER,HOT WATER LOOP,Supply,3
     Plant Loop Connector Branches,1,Splitter,HOT WATER LOOP SUPPLY SPLITTER,HOT WATER LOOP SUPPLY INLET BRANCH,HOT WATER LOOP SUPPLY BRANCH 1,HOT WATER LOOP,Supply
     Plant Loop Connector Nodes,   1,Splitter,HOT WATER LOOP SUPPLY SPLITTER,NODE 11,NODE 5,HOT WATER LOOP,Supply
     Plant Loop Connector Branches,2,Splitter,HOT WATER LOOP SUPPLY SPLITTER,HOT WATER LOOP SUPPLY INLET BRANCH,HOT WATER LOOP SUPPLY BRANCH 2,HOT WATER LOOP,Supply
     Plant Loop Connector Nodes,   2,Splitter,HOT WATER LOOP SUPPLY SPLITTER,NODE 11,NODE 14,HOT WATER LOOP,Supply
     Plant Loop Connector Branches,3,Splitter,HOT WATER LOOP SUPPLY SPLITTER,HOT WATER LOOP SUPPLY INLET BRANCH,HOT WATER LOOP SUPPLY BRANCH 3,HOT WATER LOOP,Supply
     Plant Loop Connector Nodes,   3,Splitter,HOT WATER LOOP SUPPLY SPLITTER,NODE 11,NODE 17,HOT WATER LOOP,Supply
   Plant Loop Connector,Mixer,HOT WATER LOOP SUPPLY MIXER,HOT WATER LOOP,Supply,3
     Plant Loop Connector Branches,1,Mixer,HOT WATER LOOP SUPPLY MIXER,HOT WATER LOOP SUPPLY BRANCH 1,HOT WATER LOOP SUPPLY OUTLET BRANCH,HOT WATER LOOP,Supply
     Plant Loop Connector Nodes,   1,Mixer,HOT WATER LOOP SUPPLY MIXER,NODE 12,NODE 20,HOT WATER LOOP,Supply
     Plant Loop Connector Branches,2,Mixer,HOT WATER LOOP SUPPLY MIXER,HOT WATER LOOP SUPPLY BRANCH 2,HOT WATER LOOP SUPPLY OUTLET BRANCH,HOT WATER LOOP,Supply
     Plant Loop Connector Nodes,   2,Mixer,HOT WATER LOOP SUPPLY MIXER,NODE 15,NODE 20,HOT WATER LOOP,Supply
     Plant Loop Connector Branches,3,Mixer,HOT WATER LOOP SUPPLY MIXER,HOT WATER LOOP SUPPLY BRANCH 3,HOT WATER LOOP SUPPLY OUTLET BRANCH,HOT WATER LOOP,Supply
     Plant Loop Connector Nodes,   3,Mixer,HOT WATER LOOP SUPPLY MIXER,NODE 18,NODE 20,HOT WATER LOOP,Supply
 Plant Loop Supply Connection,HOT WATER LOOP,NODE 3,NODE 6
 Plant Loop Return Connection,HOT WATER LOOP,NODE 8,NODE 2
 Plant Loop,MAIN SERVICE WATER LOOP,Demand,NODE 166,NODE 167,MAIN SERVICE WATER LOOP DEMAND BRANCHES,MAIN SERVICE WATER LOOP DEMAND CONNECTOR LIST
   Plant Loop Connector,Splitter,MAIN SERVICE WATER LOOP DEMAND SPLITTER,MAIN SERVICE WATER LOOP,Demand,12
     Plant Loop Connector Branches,1,Splitter,MAIN SERVICE WATER LOOP DEMAND SPLITTER,MAIN SERVICE WATER LOOP DEMAND INLET BRANCH,MAIN SERVICE WATER LOOP DEMAND BRANCH 1,MAIN SERVICE WATER LOOP,Demand
     Plant Loop Connector Nodes,   1,Splitter,MAIN SERVICE WATER LOOP DEMAND SPLITTER,MAIN SERVICE WATER LOOP DEMAND INLET PIPE NODE,NODE 168,MAIN SERVICE WATER LOOP,Demand
     Plant Loop Connector Branches,2,Splitter,MAIN SERVICE WATER LOOP DEMAND SPLITTER,MAIN SERVICE WATER LOOP DEMAND INLET BRANCH,MAIN SERVICE WATER LOOP DEMAND BRANCH 2,MAIN SERVICE WATER LOOP,Demand
     Plant Loop Connector Nodes,   2,Splitter,MAIN SERVICE WATER LOOP DEMAND SPLITTER,MAIN SERVICE WATER LOOP DEMAND INLET PIPE NODE,NODE 176,MAIN SERVICE WATER LOOP,Demand
     Plant Loop Connector Branches,3,Splitter,MAIN SERVICE WATER LOOP DEMAND SPLITTER,MAIN SERVICE WATER LOOP DEMAND INLET BRANCH,MAIN SERVICE WATER LOOP DEMAND BRANCH 3,MAIN SERVICE WATER LOOP,Demand
     Plant Loop Connector Nodes,   3,Splitter,MAIN SERVICE WATER LOOP DEMAND SPLITTER,MAIN SERVICE WATER LOOP DEMAND INLET PIPE NODE,NODE 178,MAIN SERVICE WATER LOOP,Demand
     Plant Loop Connector Branches,4,Splitter,MAIN SERVICE WATER LOOP DEMAND SPLITTER,MAIN SERVICE WATER LOOP DEMAND INLET BRANCH,MAIN SERVICE WATER LOOP DEMAND BRANCH 4,MAIN SERVICE WATER LOOP,Demand
     Plant Loop Connector Nodes,   4,Splitter,MAIN SERVICE WATER LOOP DEMAND SPLITTER,MAIN SERVICE WATER LOOP DEMAND INLET PIPE NODE,NODE 180,MAIN SERVICE WATER LOOP,Demand
     Plant Loop Connector Branches,5,Splitter,MAIN SERVICE WATER LOOP DEMAND SPLITTER,MAIN SERVICE WATER LOOP DEMAND INLET BRANCH,MAIN SERVICE WATER LOOP DEMAND BRANCH 5,MAIN SERVICE WATER LOOP,Demand
     Plant Loop Connector Nodes,   5,Splitter,MAIN SERVICE WATER LOOP DEMAND SPLITTER,MAIN SERVICE WATER LOOP DEMAND INLET PIPE NODE,NODE 182,MAIN SERVICE WATER LOOP,Demand
     Plant Loop Connector Branches,6,Splitter,MAIN SERVICE WATER LOOP DEMAND SPLITTER,MAIN SERVICE WATER LOOP DEMAND INLET BRANCH,MAIN SERVICE WATER LOOP DEMAND BRANCH 6,MAIN SERVICE WATER LOOP,Demand
     Plant Loop Connector Nodes,   6,Splitter,MAIN SERVICE WATER LOOP DEMAND SPLITTER,MAIN SERVICE WATER LOOP DEMAND INLET PIPE NODE,NODE 184,MAIN SERVICE WATER LOOP,Demand
     Plant Loop Connector Branches,7,Splitter,MAIN SERVICE WATER LOOP DEMAND SPLITTER,MAIN SERVICE WATER LOOP DEMAND INLET BRANCH,MAIN SERVICE WATER LOOP DEMAND BRANCH 7,MAIN SERVICE WATER LOOP,Demand
     Plant Loop Connector Nodes,   7,Splitter,MAIN SERVICE WATER LOOP DEMAND SPLITTER,MAIN SERVICE WATER LOOP DEMAND INLET PIPE NODE,NODE 186,MAIN SERVICE WATER LOOP,Demand
     Plant Loop Connector Branches,8,Splitter,MAIN SERVICE WATER LOOP DEMAND SPLITTER,MAIN SERVICE WATER LOOP DEMAND INLET BRANCH,MAIN SERVICE WATER LOOP DEMAND BRANCH 8,MAIN SERVICE WATER LOOP,Demand
     Plant Loop Connector Nodes,   8,Splitter,MAIN SERVICE WATER LOOP DEMAND SPLITTER,MAIN SERVICE WATER LOOP DEMAND INLET PIPE NODE,NODE 188,MAIN SERVICE WATER LOOP,Demand
     Plant Loop Connector Branches,9,Splitter,MAIN SERVICE WATER LOOP DEMAND SPLITTER,MAIN SERVICE WATER LOOP DEMAND INLET BRANCH,MAIN SERVICE WATER LOOP DEMAND BRANCH 9,MAIN SERVICE WATER LOOP,Demand
     Plant Loop Connector Nodes,   9,Splitter,MAIN SERVICE WATER LOOP DEMAND SPLITTER,MAIN SERVICE WATER LOOP DEMAND INLET PIPE NODE,NODE 190,MAIN SERVICE WATER LOOP,Demand
     Plant Loop Connector Branches,10,Splitter,MAIN SERVICE WATER LOOP DEMAND SPLITTER,MAIN SERVICE WATER LOOP DEMAND INLET BRANCH,MAIN SERVICE WATER LOOP DEMAND BRANCH 10,MAIN SERVICE WATER LOOP,Demand
     Plant Loop Connector Nodes,   10,Splitter,MAIN SERVICE WATER LOOP DEMAND SPLITTER,MAIN SERVICE WATER LOOP DEMAND INLET PIPE NODE,NODE 192,MAIN SERVICE WATER LOOP,Demand
     Plant Loop Connector Branches,11,Splitter,MAIN SERVICE WATER LOOP DEMAND SPLITTER,MAIN SERVICE WATER LOOP DEMAND INLET BRANCH,MAIN SERVICE WATER LOOP DEMAND BRANCH 11,MAIN SERVICE WATER LOOP,Demand
     Plant Loop Connector Nodes,   11,Splitter,MAIN SERVICE WATER LOOP DEMAND SPLITTER,MAIN SERVICE WATER LOOP DEMAND INLET PIPE NODE,NODE 194,MAIN SERVICE WATER LOOP,Demand
     Plant Loop Connector Branches,12,Splitter,MAIN SERVICE WATER LOOP DEMAND SPLITTER,MAIN SERVICE WATER LOOP DEMAND INLET BRANCH,MAIN SERVICE WATER LOOP DEMAND BYPASS BRANCH,MAIN SERVICE WATER LOOP,Demand
     Plant Loop Connector Nodes,   12,Splitter,MAIN SERVICE WATER LOOP DEMAND SPLITTER,MAIN SERVICE WATER LOOP DEMAND INLET PIPE NODE,MAIN SERVICE WATER LOOP DEMAND BYPASS PIPE INLET NODE,MAIN SERVICE WATER LOOP,Demand
   Plant Loop Connector,Mixer,MAIN SERVICE WATER LOOP DEMAND MIXER,MAIN SERVICE WATER LOOP,Demand,12
     Plant Loop Connector Branches,1,Mixer,MAIN SERVICE WATER LOOP DEMAND MIXER,MAIN SERVICE WATER LOOP DEMAND BRANCH 1,MAIN SERVICE WATER LOOP DEMAND OUTLET BRANCH,MAIN SERVICE WATER LOOP,Demand
     Plant Loop Connector Nodes,   1,Mixer,MAIN SERVICE WATER LOOP DEMAND MIXER,NODE 173,NODE 175,MAIN SERVICE WATER LOOP,Demand
     Plant Loop Connector Branches,2,Mixer,MAIN SERVICE WATER LOOP DEMAND MIXER,MAIN SERVICE WATER LOOP DEMAND BRANCH 2,MAIN SERVICE WATER LOOP DEMAND OUTLET BRANCH,MAIN SERVICE WATER LOOP,Demand
     Plant Loop Connector Nodes,   2,Mixer,MAIN SERVICE WATER LOOP DEMAND MIXER,NODE 177,NODE 175,MAIN SERVICE WATER LOOP,Demand
     Plant Loop Connector Branches,3,Mixer,MAIN SERVICE WATER LOOP DEMAND MIXER,MAIN SERVICE WATER LOOP DEMAND BRANCH 3,MAIN SERVICE WATER LOOP DEMAND OUTLET BRANCH,MAIN SERVICE WATER LOOP,Demand
     Plant Loop Connector Nodes,   3,Mixer,MAIN SERVICE WATER LOOP DEMAND MIXER,NODE 179,NODE 175,MAIN SERVICE WATER LOOP,Demand
     Plant Loop Connector Branches,4,Mixer,MAIN SERVICE WATER LOOP DEMAND MIXER,MAIN SERVICE WATER LOOP DEMAND BRANCH 4,MAIN SERVICE WATER LOOP DEMAND OUTLET BRANCH,MAIN SERVICE WATER LOOP,Demand
     Plant Loop Connector Nodes,   4,Mixer,MAIN SERVICE WATER LOOP DEMAND MIXER,NODE 181,NODE 175,MAIN SERVICE WATER LOOP,Demand
     Plant Loop Connector Branches,5,Mixer,MAIN SERVICE WATER LOOP DEMAND MIXER,MAIN SERVICE WATER LOOP DEMAND BRANCH 5,MAIN SERVICE WATER LOOP DEMAND OUTLET BRANCH,MAIN SERVICE WATER LOOP,Demand
     Plant Loop Connector Nodes,   5,Mixer,MAIN SERVICE WATER LOOP DEMAND MIXER,NODE 183,NODE 175,MAIN SERVICE WATER LOOP,Demand
     Plant Loop Connector Branches,6,Mixer,MAIN SERVICE WATER LOOP DEMAND MIXER,MAIN SERVICE WATER LOOP DEMAND BRANCH 6,MAIN SERVICE WATER LOOP DEMAND OUTLET BRANCH,MAIN SERVICE WATER LOOP,Demand
     Plant Loop Connector Nodes,   6,Mixer,MAIN SERVICE WATER LOOP DEMAND MIXER,NODE 185,NODE 175,MAIN SERVICE WATER LOOP,Demand
     Plant Loop Connector Branches,7,Mixer,MAIN SERVICE WATER LOOP DEMAND MIXER,MAIN SERVICE WATER LOOP DEMAND BRANCH 7,MAIN SERVICE WATER LOOP DEMAND OUTLET BRANCH,MAIN SERVICE WATER LOOP,Demand
     Plant Loop Connector Nodes,   7,Mixer,MAIN SERVICE WATER LOOP DEMAND MIXER,NODE 187,NODE 175,MAIN SERVICE WATER LOOP,Demand
     Plant Loop Connector Branches,8,Mixer,MAIN SERVICE WATER LOOP DEMAND MIXER,MAIN SERVICE WATER LOOP DEMAND BRANCH 8,MAIN SERVICE WATER LOOP DEMAND OUTLET BRANCH,MAIN SERVICE WATER LOOP,Demand
     Plant Loop Connector Nodes,   8,Mixer,MAIN SERVICE WATER LOOP DEMAND MIXER,NODE 189,NODE 175,MAIN SERVICE WATER LOOP,Demand
     Plant Loop Connector Branches,9,Mixer,MAIN SERVICE WATER LOOP DEMAND MIXER,MAIN SERVICE WATER LOOP DEMAND BRANCH 9,MAIN SERVICE WATER LOOP DEMAND OUTLET BRANCH,MAIN SERVICE WATER LOOP,Demand
     Plant Loop Connector Nodes,   9,Mixer,MAIN SERVICE WATER LOOP DEMAND MIXER,NODE 191,NODE 175,MAIN SERVICE WATER LOOP,Demand
     Plant Loop Connector Branches,10,Mixer,MAIN SERVICE WATER LOOP DEMAND MIXER,MAIN SERVICE WATER LOOP DEMAND BRANCH 10,MAIN SERVICE WATER LOOP DEMAND OUTLET BRANCH,MAIN SERVICE WATER LOOP,Demand
     Plant Loop Connector Nodes,   10,Mixer,MAIN SERVICE WATER LOOP DEMAND MIXER,NODE 193,NODE 175,MAIN SERVICE WATER LOOP,Demand
     Plant Loop Connector Branches,11,Mixer,MAIN SERVICE WATER LOOP DEMAND MIXER,MAIN SERVICE WATER LOOP DEMAND BRANCH 11,MAIN SERVICE WATER LOOP DEMAND OUTLET BRANCH,MAIN SERVICE WATER LOOP,Demand
     Plant Loop Connector Nodes,   11,Mixer,MAIN SERVICE WATER LOOP DEMAND MIXER,NODE 195,NODE 175,MAIN SERVICE WATER LOOP,Demand
     Plant Loop Connector Branches,12,Mixer,MAIN SERVICE WATER LOOP DEMAND MIXER,MAIN SERVICE WATER LOOP DEMAND BYPASS BRANCH,MAIN SERVICE WATER LOOP DEMAND OUTLET BRANCH,MAIN SERVICE WATER LOOP,Demand
     Plant Loop Connector Nodes,   12,Mixer,MAIN SERVICE WATER LOOP DEMAND MIXER,MAIN SERVICE WATER LOOP DEMAND BYPASS PIPE OUTLET NODE,NODE 175,MAIN SERVICE WATER LOOP,Demand
 Plant Loop,MAIN SERVICE WATER LOOP,Supply,NODE 163,NODE 164,MAIN SERVICE WATER LOOP SUPPLY BRANCHES,MAIN SERVICE WATER LOOP SUPPLY CONNECTOR LIST
   Plant Loop Connector,Splitter,MAIN SERVICE WATER LOOP SUPPLY SPLITTER,MAIN SERVICE WATER LOOP,Supply,2
     Plant Loop Connector Branches,1,Splitter,MAIN SERVICE WATER LOOP SUPPLY SPLITTER,MAIN SERVICE WATER LOOP SUPPLY INLET BRANCH,MAIN SERVICE WATER LOOP SUPPLY BRANCH 1,MAIN SERVICE WATER LOOP,Supply
     Plant Loop Connector Nodes,   1,Splitter,MAIN SERVICE WATER LOOP SUPPLY SPLITTER,NODE 169,NODE 165,MAIN SERVICE WATER LOOP,Supply
     Plant Loop Connector Branches,2,Splitter,MAIN SERVICE WATER LOOP SUPPLY SPLITTER,MAIN SERVICE WATER LOOP SUPPLY INLET BRANCH,MAIN SERVICE WATER LOOP SUPPLY BRANCH 2,MAIN SERVICE WATER LOOP,Supply
     Plant Loop Connector Nodes,   2,Splitter,MAIN SERVICE WATER LOOP SUPPLY SPLITTER,NODE 169,NODE 171,MAIN SERVICE WATER LOOP,Supply
   Plant Loop Connector,Mixer,MAIN SERVICE WATER LOOP SUPPLY MIXER,MAIN SERVICE WATER LOOP,Supply,2
     Plant Loop Connector Branches,1,Mixer,MAIN SERVICE WATER LOOP SUPPLY MIXER,MAIN SERVICE WATER LOOP SUPPLY BRANCH 1,MAIN SERVICE WATER LOOP SUPPLY OUTLET BRANCH,MAIN SERVICE WATER LOOP,Supply
     Plant Loop Connector Nodes,   1,Mixer,MAIN SERVICE WATER LOOP SUPPLY MIXER,NODE 170,NODE 174,MAIN SERVICE WATER LOOP,Supply
     Plant Loop Connector Branches,2,Mixer,MAIN SERVICE WATER LOOP SUPPLY MIXER,MAIN SERVICE WATER LOOP SUPPLY BRANCH 2,MAIN SERVICE WATER LOOP SUPPLY OUTLET BRANCH,MAIN SERVICE WATER LOOP,Supply
     Plant Loop Connector Nodes,   2,Mixer,MAIN SERVICE WATER LOOP SUPPLY MIXER,NODE 172,NODE 174,MAIN SERVICE WATER LOOP,Supply
 Plant Loop Supply Connection,MAIN SERVICE WATER LOOP,NODE 164,NODE 166
 Plant Loop Return Connection,MAIN SERVICE WATER LOOP,NODE 167,NODE 163
! ===============================================================
! <# Condenser Loops>,<Number of Condenser Loops>
 #Condenser Loops,0
! <Condenser Loop>,<Condenser Loop Name>,<Loop Type>,<Inlet Node Name>,<Outlet Node Name>,<Branch List>,<Connector List>
! <Condenser Loop Connector>,<Connector Type>,<Connector Name>,<Loop Name>,<Loop Type>,<Number of Inlets/Outlets>
! <Condenser Loop Connector Branches>,<Connector Node Count>,<Connector Type>,<Connector Name>,<Inlet Branch>,<Outlet Branch>,<Loop Name>,<Loop Type>
! <Condenser Loop Connector Nodes>,<Connector Node Count>,<Connector Type>,<Connector Name>,<Inlet Node>,<Outlet Node>,<Loop Name>,<Loop Type>
! <Condenser Loop Supply Connection>,<Condenser Loop Name>,<Supply Side Outlet Node Name>,<Demand Side Inlet Node Name>
! <Condenser Loop Return Connection>,<Condenser Loop Name>,<Demand Side Outlet Node Name>,<Supply Side Inlet Node Name>
! ===============================================================
! <# Controlled Zones>,<Number of Controlled Zones>
 #Controlled Zones,10
! <Controlled Zone>,<Controlled Zone Name>,<Equip List Name>,<Control List Name>,<Zone Node Name>,<# Inlet Nodes>,<# Exhaust Nodes>,<# Return Nodes>
! <Controlled Zone Inlet>,<Inlet Node Count>,<Controlled Zone Name>,<Supply Air Inlet Node Name>,<SD Sys:Cooling/Heating [DD:Cooling] Inlet Node Name>,<DD Sys:Heating Inlet Node Name>
! <Controlled Zone Exhaust>,<Exhaust Node Count>,<Controlled Zone Name>,<Exhaust Air Node Name>
 Controlled Zone,ALL_ST=WHOLEBUILDING_FL=STORY 1_SCH=A,ALL_ST=WHOLEBUILDING_FL=STORY 1_SCH=A EQUIPMENT LIST,,NODE 13,1,0,1
   Controlled Zone Inlet,1,ALL_ST=WHOLEBUILDING_FL=STORY 1_SCH=A,NODE 83,NODE 90,N/A
   Controlled Zone Return,1,ALL_ST=WHOLEBUILDING_FL=STORY 1_SCH=A,NODE 89
 Controlled Zone,ALL_ST=WHOLEBUILDING_FL=STORY 1_SCH=A 1,ALL_ST=WHOLEBUILDING_FL=STORY 1_SCH=A 1 EQUIPMENT LIST,,NODE 19,1,0,1
   Controlled Zone Inlet,1,ALL_ST=WHOLEBUILDING_FL=STORY 1_SCH=A 1,NODE 111,NODE 118,N/A
   Controlled Zone Return,1,ALL_ST=WHOLEBUILDING_FL=STORY 1_SCH=A 1,NODE 117
 Controlled Zone,ALL_ST=WHOLEBUILDING_FL=STORY 1_SCH=A 2,ALL_ST=WHOLEBUILDING_FL=STORY 1_SCH=A 2 EQUIPMENT LIST,,NODE 22,1,0,1
   Controlled Zone Inlet,1,ALL_ST=WHOLEBUILDING_FL=STORY 1_SCH=A 2,NODE 125,NODE 132,N/A
   Controlled Zone Return,1,ALL_ST=WHOLEBUILDING_FL=STORY 1_SCH=A 2,NODE 131
 Controlled Zone,ALL_ST=WHOLEBUILDING_FL=STORY 1_SCH=A 3,ALL_ST=WHOLEBUILDING_FL=STORY 1_SCH=A 3 EQUIPMENT LIST,,NODE 25,1,0,1
   Controlled Zone Inlet,1,ALL_ST=WHOLEBUILDING_FL=STORY 1_SCH=A 3,NODE 139,NODE 146,N/A
   Controlled Zone Return,1,ALL_ST=WHOLEBUILDING_FL=STORY 1_SCH=A 3,NODE 145
 Controlled Zone,ALL_ST=WHOLEBUILDING_FL=STORY 1_SCH=A 4,ALL_ST=WHOLEBUILDING_FL=STORY 1_SCH=A 4 EQUIPMENT LIST,,NODE 28,1,0,1
   Controlled Zone Inlet,1,ALL_ST=WHOLEBUILDING_FL=STORY 1_SCH=A 4,NODE 153,NODE 160,N/A
   Controlled Zone Return,1,ALL_ST=WHOLEBUILDING_FL=STORY 1_SCH=A 4,NODE 159
 Controlled Zone,ALL_ST=WHOLEBUILDING_FL=STORY 2_SCH=A,ALL_ST=WHOLEBUILDING_FL=STORY 2_SCH=A EQUIPMENT LIST,,NODE 1,1,0,1
   Controlled Zone Inlet,1,ALL_ST=WHOLEBUILDING_FL=STORY 2_SCH=A,NODE 27,NODE 35,N/A
   Controlled Zone Return,1,ALL_ST=WHOLEBUILDING_FL=STORY 2_SCH=A,NODE 34
 Controlled Zone,ALL_ST=WHOLEBUILDING_FL=STORY 2_SCH=A 1,ALL_ST=WHOLEBUILDING_FL=STORY 2_SCH=A 1 EQUIPMENT LIST,,NODE 4,1,0,1
   Controlled Zone Inlet,1,ALL_ST=WHOLEBUILDING_FL=STORY 2_SCH=A 1,NODE 41,NODE 48,N/A
   Controlled Zone Return,1,ALL_ST=WHOLEBUILDING_FL=STORY 2_SCH=A 1,NODE 47
 Controlled Zone,ALL_ST=WHOLEBUILDING_FL=STORY 2_SCH=A 2,ALL_ST=WHOLEBUILDING_FL=STORY 2_SCH=A 2 EQUIPMENT LIST,,NODE 7,1,0,1
   Controlled Zone Inlet,1,ALL_ST=WHOLEBUILDING_FL=STORY 2_SCH=A 2,NODE 55,NODE 62,N/A
   Controlled Zone Return,1,ALL_ST=WHOLEBUILDING_FL=STORY 2_SCH=A 2,NODE 61
 Controlled Zone,ALL_ST=WHOLEBUILDING_FL=STORY 2_SCH=A 3,ALL_ST=WHOLEBUILDING_FL=STORY 2_SCH=A 3 EQUIPMENT LIST,,NODE 10,1,0,1
   Controlled Zone Inlet,1,ALL_ST=WHOLEBUILDING_FL=STORY 2_SCH=A 3,NODE 69,NODE 76,N/A
   Controlled Zone Return,1,ALL_ST=WHOLEBUILDING_FL=STORY 2_SCH=A 3,NODE 75
 Controlled Zone,ALL_ST=WHOLEBUILDING_FL=STORY 2_SCH=A 4,ALL_ST=WHOLEBUILDING_FL=STORY 2_SCH=A 4 EQUIPMENT LIST,,NODE 16,1,0,1
   Controlled Zone Inlet,1,ALL_ST=WHOLEBUILDING_FL=STORY 2_SCH=A 4,NODE 97,NODE 104,N/A
   Controlled Zone Return,1,ALL_ST=WHOLEBUILDING_FL=STORY 2_SCH=A 4,NODE 103
! ===============================================================
! <#Zone Equipment Lists>,<Number of Zone Equipment Lists>
 #Zone Equipment Lists,10
! <Zone Equipment List>,<Zone Equipment List Count>,<Zone Equipment List Name>,<Zone Name>,<Number of Components>
! <Zone Equipment Component>,<Component Count>,<Component Type>,<Component Name>,<Zone Name>,<Heating Priority>,<Cooling Priority>
 Zone Equipment List,1,ALL_ST=WHOLEBUILDING_FL=STORY 1_SCH=A EQUIPMENT LIST,ALL_ST=WHOLEBUILDING_FL=STORY 1_SCH=A,2
   Zone Equipment Component,1,ZONEHVAC:AIRDISTRIBUTIONUNIT,ADU AIR TERMINAL SINGLE DUCT CONSTANT VOLUME NO REHEAT 5,ALL_ST=WHOLEBUILDING_FL=STORY 1_SCH=A,1,1
[...]
 Non-Parent Node Connection,NODE 203,OUTDOORAIR:MIXER,AIR LOOP HVAC OUTDOOR AIR SYSTEM 9 OUTDOOR AIR MIXER,Inlet,1
 Non-Parent Node Connection,NODE 204,OUTDOORAIR:MIXER,AIR LOOP HVAC OUTDOOR AIR SYSTEM 9 OUTDOOR AIR MIXER,ReliefAir,1
 Non-Parent Node Connection,NODE 135,OUTDOORAIR:MIXER,AIR LOOP HVAC OUTDOOR AIR SYSTEM 9 OUTDOOR AIR MIXER,Inlet,1
 Non-Parent Node Connection,NODE 158,OUTDOORAIR:MIXER,AIR LOOP HVAC OUTDOOR AIR SYSTEM 10 OUTDOOR AIR MIXER,Outlet,1
 Non-Parent Node Connection,NODE 205,OUTDOORAIR:MIXER,AIR LOOP HVAC OUTDOOR AIR SYSTEM 10 OUTDOOR AIR MIXER,Inlet,1
 Non-Parent Node Connection,NODE 206,OUTDOORAIR:MIXER,AIR LOOP HVAC OUTDOOR AIR SYSTEM 10 OUTDOOR AIR MIXER,ReliefAir,1
 Non-Parent Node Connection,NODE 149,OUTDOORAIR:MIXER,AIR LOOP HVAC OUTDOOR AIR SYSTEM 10 OUTDOOR AIR MIXER,Inlet,1
 Non-Parent Node Connection,NODE 33,OUTDOORAIR:MIXER,AIR LOOP HVAC OUTDOOR AIR SYSTEM 1 OUTDOOR AIR MIXER,Outlet,1
 Non-Parent Node Connection,NODE 207,OUTDOORAIR:MIXER,AIR LOOP HVAC OUTDOOR AIR SYSTEM 1 OUTDOOR AIR MIXER,Inlet,1
 Non-Parent Node Connection,NODE 208,OUTDOORAIR:MIXER,AIR LOOP HVAC OUTDOOR AIR SYSTEM 1 OUTDOOR AIR MIXER,ReliefAir,1
 Non-Parent Node Connection,NODE 21,OUTDOORAIR:MIXER,AIR LOOP HVAC OUTDOOR AIR SYSTEM 1 OUTDOOR AIR MIXER,Inlet,1
 Non-Parent Node Connection,NODE 46,OUTDOORAIR:MIXER,AIR LOOP HVAC OUTDOOR AIR SYSTEM 2 OUTDOOR AIR MIXER,Outlet,1
 Non-Parent Node Connection,NODE 209,OUTDOORAIR:MIXER,AIR LOOP HVAC OUTDOOR AIR SYSTEM 2 OUTDOOR AIR MIXER,Inlet,1
 Non-Parent Node Connection,NODE 210,OUTDOORAIR:MIXER,AIR LOOP HVAC OUTDOOR AIR SYSTEM 2 OUTDOOR AIR MIXER,ReliefAir,1
 Non-Parent Node Connection,NODE 37,OUTDOORAIR:MIXER,AIR LOOP HVAC OUTDOOR AIR SYSTEM 2 OUTDOOR AIR MIXER,Inlet,1
 Non-Parent Node Connection,NODE 60,OUTDOORAIR:MIXER,AIR LOOP HVAC OUTDOOR AIR SYSTEM 3 OUTDOOR AIR MIXER,Outlet,1
 Non-Parent Node Connection,NODE 211,OUTDOORAIR:MIXER,AIR LOOP HVAC OUTDOOR AIR SYSTEM 3 OUTDOOR AIR MIXER,Inlet,1
 Non-Parent Node Connection,NODE 212,OUTDOORAIR:MIXER,AIR LOOP HVAC OUTDOOR AIR SYSTEM 3 OUTDOOR AIR MIXER,ReliefAir,1
 Non-Parent Node Connection,NODE 51,OUTDOORAIR:MIXER,AIR LOOP HVAC OUTDOOR AIR SYSTEM 3 OUTDOOR AIR MIXER,Inlet,1
 Non-Parent Node Connection,NODE 74,OUTDOORAIR:MIXER,AIR LOOP HVAC OUTDOOR AIR SYSTEM 4 OUTDOOR AIR MIXER,Outlet,1
 Non-Parent Node Connection,NODE 213,OUTDOORAIR:MIXER,AIR LOOP HVAC OUTDOOR AIR SYSTEM 4 OUTDOOR AIR MIXER,Inlet,1
 Non-Parent Node Connection,NODE 214,OUTDOORAIR:MIXER,AIR LOOP HVAC OUTDOOR AIR SYSTEM 4 OUTDOOR AIR MIXER,ReliefAir,1
 Non-Parent Node Connection,NODE 65,OUTDOORAIR:MIXER,AIR LOOP HVAC OUTDOOR AIR SYSTEM 4 OUTDOOR AIR MIXER,Inlet,1
 Non-Parent Node Connection,NODE 102,OUTDOORAIR:MIXER,AIR LOOP HVAC OUTDOOR AIR SYSTEM 6 OUTDOOR AIR MIXER,Outlet,1
 Non-Parent Node Connection,NODE 215,OUTDOORAIR:MIXER,AIR LOOP HVAC OUTDOOR AIR SYSTEM 6 OUTDOOR AIR MIXER,Inlet,1
 Non-Parent Node Connection,NODE 216,OUTDOORAIR:MIXER,AIR LOOP HVAC OUTDOOR AIR SYSTEM 6 OUTDOOR AIR MIXER,ReliefAir,1
 Non-Parent Node Connection,NODE 93,OUTDOORAIR:MIXER,AIR LOOP HVAC OUTDOOR AIR SYSTEM 6 OUTDOOR AIR MIXER,Inlet,1
 Non-Parent Node Connection,NODE 86,FAN:CONSTANTVOLUME,FAN CONSTANT VOLUME 5,Inlet,1
 Non-Parent Node Connection,NODE 80,FAN:CONSTANTVOLUME,FAN CONSTANT VOLUME 5,Outlet,1
 Non-Parent Node Connection,NODE 114,FAN:CONSTANTVOLUME,FAN CONSTANT VOLUME 7,Inlet,1
 Non-Parent Node Connection,NODE 108,FAN:CONSTANTVOLUME,FAN CONSTANT VOLUME 7,Outlet,1
 Non-Parent Node Connection,NODE 128,FAN:CONSTANTVOLUME,FAN CONSTANT VOLUME 8,Inlet,1
 Non-Parent Node Connection,NODE 122,FAN:CONSTANTVOLUME,FAN CONSTANT VOLUME 8,Outlet,1
 Non-Parent Node Connection,NODE 142,FAN:CONSTANTVOLUME,FAN CONSTANT VOLUME 9,Inlet,1
 Non-Parent Node Connection,NODE 136,FAN:CONSTANTVOLUME,FAN CONSTANT VOLUME 9,Outlet,1
 Non-Parent Node Connection,NODE 156,FAN:CONSTANTVOLUME,FAN CONSTANT VOLUME 10,Inlet,1
 Non-Parent Node Connection,NODE 150,FAN:CONSTANTVOLUME,FAN CONSTANT VOLUME 10,Outlet,1
 Non-Parent Node Connection,NODE 31,FAN:CONSTANTVOLUME,FAN CONSTANT VOLUME 1,Inlet,1
 Non-Parent Node Connection,NODE 23,FAN:CONSTANTVOLUME,FAN CONSTANT VOLUME 1,Outlet,1
 Non-Parent Node Connection,NODE 44,FAN:CONSTANTVOLUME,FAN CONSTANT VOLUME 2,Inlet,1
 Non-Parent Node Connection,NODE 38,FAN:CONSTANTVOLUME,FAN CONSTANT VOLUME 2,Outlet,1
 Non-Parent Node Connection,NODE 58,FAN:CONSTANTVOLUME,FAN CONSTANT VOLUME 3,Inlet,1
 Non-Parent Node Connection,NODE 52,FAN:CONSTANTVOLUME,FAN CONSTANT VOLUME 3,Outlet,1
 Non-Parent Node Connection,NODE 72,FAN:CONSTANTVOLUME,FAN CONSTANT VOLUME 4,Inlet,1
 Non-Parent Node Connection,NODE 66,FAN:CONSTANTVOLUME,FAN CONSTANT VOLUME 4,Outlet,1
 Non-Parent Node Connection,NODE 100,FAN:CONSTANTVOLUME,FAN CONSTANT VOLUME 6,Inlet,1
 Non-Parent Node Connection,NODE 94,FAN:CONSTANTVOLUME,FAN CONSTANT VOLUME 6,Outlet,1
 Non-Parent Node Connection,NODE 88,CONTROLLER:OUTDOORAIR,CONTROLLER OUTDOOR AIR 5,Sensor,1
 Non-Parent Node Connection,NODE 84,CONTROLLER:OUTDOORAIR,CONTROLLER OUTDOOR AIR 5,Actuator,1
 Non-Parent Node Connection,NODE 198,CONTROLLER:OUTDOORAIR,CONTROLLER OUTDOOR AIR 5,Actuator,1
 Non-Parent Node Connection,NODE 79,CONTROLLER:OUTDOORAIR,CONTROLLER OUTDOOR AIR 5,Sensor,1
 Non-Parent Node Connection,NODE 116,CONTROLLER:OUTDOORAIR,CONTROLLER OUTDOOR AIR 7,Sensor,1
 Non-Parent Node Connection,NODE 112,CONTROLLER:OUTDOORAIR,CONTROLLER OUTDOOR AIR 7,Actuator,1
 Non-Parent Node Connection,NODE 200,CONTROLLER:OUTDOORAIR,CONTROLLER OUTDOOR AIR 7,Actuator,1
 Non-Parent Node Connection,NODE 107,CONTROLLER:OUTDOORAIR,CONTROLLER OUTDOOR AIR 7,Sensor,1
 Non-Parent Node Connection,NODE 130,CONTROLLER:OUTDOORAIR,CONTROLLER OUTDOOR AIR 8,Sensor,1
 Non-Parent Node Connection,NODE 126,CONTROLLER:OUTDOORAIR,CONTROLLER OUTDOOR AIR 8,Actuator,1
 Non-Parent Node Connection,NODE 202,CONTROLLER:OUTDOORAIR,CONTROLLER OUTDOOR AIR 8,Actuator,1
 Non-Parent Node Connection,NODE 121,CONTROLLER:OUTDOORAIR,CONTROLLER OUTDOOR AIR 8,Sensor,1
 Non-Parent Node Connection,NODE 144,CONTROLLER:OUTDOORAIR,CONTROLLER OUTDOOR AIR 9,Sensor,1
 Non-Parent Node Connection,NODE 140,CONTROLLER:OUTDOORAIR,CONTROLLER OUTDOOR AIR 9,Actuator,1
 Non-Parent Node Connection,NODE 204,CONTROLLER:OUTDOORAIR,CONTROLLER OUTDOOR AIR 9,Actuator,1
 Non-Parent Node Connection,NODE 135,CONTROLLER:OUTDOORAIR,CONTROLLER OUTDOOR AIR 9,Sensor,1
 Non-Parent Node Connection,NODE 158,CONTROLLER:OUTDOORAIR,CONTROLLER OUTDOOR AIR 10,Sensor,1
 Non-Parent Node Connection,NODE 154,CONTROLLER:OUTDOORAIR,CONTROLLER OUTDOOR AIR 10,Actuator,1
 Non-Parent Node Connection,NODE 206,CONTROLLER:OUTDOORAIR,CONTROLLER OUTDOOR AIR 10,Actuator,1
 Non-Parent Node Connection,NODE 149,CONTROLLER:OUTDOORAIR,CONTROLLER OUTDOOR AIR 10,Sensor,1
 Non-Parent Node Connection,NODE 33,CONTROLLER:OUTDOORAIR,CONTROLLER OUTDOOR AIR 1,Sensor,1
 Non-Parent Node Connection,NODE 29,CONTROLLER:OUTDOORAIR,CONTROLLER OUTDOOR AIR 1,Actuator,1
 Non-Parent Node Connection,NODE 208,CONTROLLER:OUTDOORAIR,CONTROLLER OUTDOOR AIR 1,Actuator,1
 Non-Parent Node Connection,NODE 21,CONTROLLER:OUTDOORAIR,CONTROLLER OUTDOOR AIR 1,Sensor,1
 Non-Parent Node Connection,NODE 46,CONTROLLER:OUTDOORAIR,CONTROLLER OUTDOOR AIR 2,Sensor,1
 Non-Parent Node Connection,NODE 42,CONTROLLER:OUTDOORAIR,CONTROLLER OUTDOOR AIR 2,Actuator,1
 Non-Parent Node Connection,NODE 210,CONTROLLER:OUTDOORAIR,CONTROLLER OUTDOOR AIR 2,Actuator,1
 Non-Parent Node Connection,NODE 37,CONTROLLER:OUTDOORAIR,CONTROLLER OUTDOOR AIR 2,Sensor,1
 Non-Parent Node Connection,NODE 60,CONTROLLER:OUTDOORAIR,CONTROLLER OUTDOOR AIR 3,Sensor,1
 Non-Parent Node Connection,NODE 56,CONTROLLER:OUTDOORAIR,CONTROLLER OUTDOOR AIR 3,Actuator,1
 Non-Parent Node Connection,NODE 212,CONTROLLER:OUTDOORAIR,CONTROLLER OUTDOOR AIR 3,Actuator,1
 Non-Parent Node Connection,NODE 51,CONTROLLER:OUTDOORAIR,CONTROLLER OUTDOOR AIR 3,Sensor,1
 Non-Parent Node Connection,NODE 74,CONTROLLER:OUTDOORAIR,CONTROLLER OUTDOOR AIR 4,Sensor,1
 Non-Parent Node Connection,NODE 70,CONTROLLER:OUTDOORAIR,CONTROLLER OUTDOOR AIR 4,Actuator,1
 Non-Parent Node Connection,NODE 214,CONTROLLER:OUTDOORAIR,CONTROLLER OUTDOOR AIR 4,Actuator,1
 Non-Parent Node Connection,NODE 65,CONTROLLER:OUTDOORAIR,CONTROLLER OUTDOOR AIR 4,Sensor,1
 Non-Parent Node Connection,NODE 102,CONTROLLER:OUTDOORAIR,CONTROLLER OUTDOOR AIR 6,Sensor,1
 Non-Parent Node Connection,NODE 98,CONTROLLER:OUTDOORAIR,CONTROLLER OUTDOOR AIR 6,Actuator,1
 Non-Parent Node Connection,NODE 216,CONTROLLER:OUTDOORAIR,CONTROLLER OUTDOOR AIR 6,Actuator,1
 Non-Parent Node Connection,NODE 93,CONTROLLER:OUTDOORAIR,CONTROLLER OUTDOOR AIR 6,Sensor,1
 Non-Parent Node Connection,NODE 84,HEATEXCHANGER:AIRTOAIR:SENSIBLEANDLATENT,SYS_3_PSZ ALL_ST=WHOLEBUILDING_FL=STORY 1_SCH=A ERV,Inlet,1
 Non-Parent Node Connection,NODE 197,HEATEXCHANGER:AIRTOAIR:SENSIBLEANDLATENT,SYS_3_PSZ ALL_ST=WHOLEBUILDING_FL=STORY 1_SCH=A ERV,Outlet,1
 Non-Parent Node Connection,NODE 198,HEATEXCHANGER:AIRTOAIR:SENSIBLEANDLATENT,SYS_3_PSZ ALL_ST=WHOLEBUILDING_FL=STORY 1_SCH=A ERV,Inlet,2
 Non-Parent Node Connection,NODE 85,HEATEXCHANGER:AIRTOAIR:SENSIBLEANDLATENT,SYS_3_PSZ ALL_ST=WHOLEBUILDING_FL=STORY 1_SCH=A ERV,Outlet,2
 Non-Parent Node Connection,NODE 112,HEATEXCHANGER:AIRTOAIR:SENSIBLEANDLATENT,SYS_3_PSZ ALL_ST=WHOLEBUILDING_FL=STORY 1_SCH=A 1 ERV,Inlet,1
 Non-Parent Node Connection,NODE 199,HEATEXCHANGER:AIRTOAIR:SENSIBLEANDLATENT,SYS_3_PSZ ALL_ST=WHOLEBUILDING_FL=STORY 1_SCH=A 1 ERV,Outlet,1
 Non-Parent Node Connection,NODE 200,HEATEXCHANGER:AIRTOAIR:SENSIBLEANDLATENT,SYS_3_PSZ ALL_ST=WHOLEBUILDING_FL=STORY 1_SCH=A 1 ERV,Inlet,2
 Non-Parent Node Connection,NODE 113,HEATEXCHANGER:AIRTOAIR:SENSIBLEANDLATENT,SYS_3_PSZ ALL_ST=WHOLEBUILDING_FL=STORY 1_SCH=A 1 ERV,Outlet,2
 Non-Parent Node Connection,NODE 126,HEATEXCHANGER:AIRTOAIR:SENSIBLEANDLATENT,SYS_3_PSZ ALL_ST=WHOLEBUILDING_FL=STORY 1_SCH=A 2 ERV,Inlet,1
 Non-Parent Node Connection,NODE 201,HEATEXCHANGER:AIRTOAIR:SENSIBLEANDLATENT,SYS_3_PSZ ALL_ST=WHOLEBUILDING_FL=STORY 1_SCH=A 2 ERV,Outlet,1
 Non-Parent Node Connection,NODE 202,HEATEXCHANGER:AIRTOAIR:SENSIBLEANDLATENT,SYS_3_PSZ ALL_ST=WHOLEBUILDING_FL=STORY 1_SCH=A 2 ERV,Inlet,2
 Non-Parent Node Connection,NODE 127,HEATEXCHANGER:AIRTOAIR:SENSIBLEANDLATENT,SYS_3_PSZ ALL_ST=WHOLEBUILDING_FL=STORY 1_SCH=A 2 ERV,Outlet,2
 Non-Parent Node Connection,NODE 140,HEATEXCHANGER:AIRTOAIR:SENSIBLEANDLATENT,SYS_3_PSZ ALL_ST=WHOLEBUILDING_FL=STORY 1_SCH=A 3 ERV,Inlet,1
 Non-Parent Node Connection,NODE 203,HEATEXCHANGER:AIRTOAIR:SENSIBLEANDLATENT,SYS_3_PSZ ALL_ST=WHOLEBUILDING_FL=STORY 1_SCH=A 3 ERV,Outlet,1
 Non-Parent Node Connection,NODE 204,HEATEXCHANGER:AIRTOAIR:SENSIBLEANDLATENT,SYS_3_PSZ ALL_ST=WHOLEBUILDING_FL=STORY 1_SCH=A 3 ERV,Inlet,2
 Non-Parent Node Connection,NODE 141,HEATEXCHANGER:AIRTOAIR:SENSIBLEANDLATENT,SYS_3_PSZ ALL_ST=WHOLEBUILDING_FL=STORY 1_SCH=A 3 ERV,Outlet,2
 Non-Parent Node Connection,NODE 154,HEATEXCHANGER:AIRTOAIR:SENSIBLEANDLATENT,SYS_3_PSZ ALL_ST=WHOLEBUILDING_FL=STORY 1_SCH=A 4 ERV,Inlet,1
 Non-Parent Node Connection,NODE 205,HEATEXCHANGER:AIRTOAIR:SENSIBLEANDLATENT,SYS_3_PSZ ALL_ST=WHOLEBUILDING_FL=STORY 1_SCH=A 4 ERV,Outlet,1
 Non-Parent Node Connection,NODE 206,HEATEXCHANGER:AIRTOAIR:SENSIBLEANDLATENT,SYS_3_PSZ ALL_ST=WHOLEBUILDING_FL=STORY 1_SCH=A 4 ERV,Inlet,2
 Non-Parent Node Connection,NODE 155,HEATEXCHANGER:AIRTOAIR:SENSIBLEANDLATENT,SYS_3_PSZ ALL_ST=WHOLEBUILDING_FL=STORY 1_SCH=A 4 ERV,Outlet,2
 Non-Parent Node Connection,NODE 29,HEATEXCHANGER:AIRTOAIR:SENSIBLEANDLATENT,SYS_3_PSZ ALL_ST=WHOLEBUILDING_FL=STORY 2_SCH=A ERV,Inlet,1
 Non-Parent Node Connection,NODE 207,HEATEXCHANGER:AIRTOAIR:SENSIBLEANDLATENT,SYS_3_PSZ ALL_ST=WHOLEBUILDING_FL=STORY 2_SCH=A ERV,Outlet,1
 Non-Parent Node Connection,NODE 208,HEATEXCHANGER:AIRTOAIR:SENSIBLEANDLATENT,SYS_3_PSZ ALL_ST=WHOLEBUILDING_FL=STORY 2_SCH=A ERV,Inlet,2
 Non-Parent Node Connection,NODE 30,HEATEXCHANGER:AIRTOAIR:SENSIBLEANDLATENT,SYS_3_PSZ ALL_ST=WHOLEBUILDING_FL=STORY 2_SCH=A ERV,Outlet,2
 Non-Parent Node Connection,NODE 42,HEATEXCHANGER:AIRTOAIR:SENSIBLEANDLATENT,SYS_3_PSZ ALL_ST=WHOLEBUILDING_FL=STORY 2_SCH=A 1 ERV,Inlet,1
 Non-Parent Node Connection,NODE 209,HEATEXCHANGER:AIRTOAIR:SENSIBLEANDLATENT,SYS_3_PSZ ALL_ST=WHOLEBUILDING_FL=STORY 2_SCH=A 1 ERV,Outlet,1
 Non-Parent Node Connection,NODE 210,HEATEXCHANGER:AIRTOAIR:SENSIBLEANDLATENT,SYS_3_PSZ ALL_ST=WHOLEBUILDING_FL=STORY 2_SCH=A 1 ERV,Inlet,2
 Non-Parent Node Connection,NODE 43,HEATEXCHANGER:AIRTOAIR:SENSIBLEANDLATENT,SYS_3_PSZ ALL_ST=WHOLEBUILDING_FL=STORY 2_SCH=A 1 ERV,Outlet,2
 Non-Parent Node Connection,NODE 56,HEATEXCHANGER:AIRTOAIR:SENSIBLEANDLATENT,SYS_3_PSZ ALL_ST=WHOLEBUILDING_FL=STORY 2_SCH=A 2 ERV,Inlet,1
 Non-Parent Node Connection,NODE 211,HEATEXCHANGER:AIRTOAIR:SENSIBLEANDLATENT,SYS_3_PSZ ALL_ST=WHOLEBUILDING_FL=STORY 2_SCH=A 2 ERV,Outlet,1
 Non-Parent Node Connection,NODE 212,HEATEXCHANGER:AIRTOAIR:SENSIBLEANDLATENT,SYS_3_PSZ ALL_ST=WHOLEBUILDING_FL=STORY 2_SCH=A 2 ERV,Inlet,2
 Non-Parent Node Connection,NODE 57,HEATEXCHANGER:AIRTOAIR:SENSIBLEANDLATENT,SYS_3_PSZ ALL_ST=WHOLEBUILDING_FL=STORY 2_SCH=A 2 ERV,Outlet,2
 Non-Parent Node Connection,NODE 70,HEATEXCHANGER:AIRTOAIR:SENSIBLEANDLATENT,SYS_3_PSZ ALL_ST=WHOLEBUILDING_FL=STORY 2_SCH=A 3 ERV,Inlet,1
 Non-Parent Node Connection,NODE 213,HEATEXCHANGER:AIRTOAIR:SENSIBLEANDLATENT,SYS_3_PSZ ALL_ST=WHOLEBUILDING_FL=STORY 2_SCH=A 3 ERV,Outlet,1
 Non-Parent Node Connection,NODE 214,HEATEXCHANGER:AIRTOAIR:SENSIBLEANDLATENT,SYS_3_PSZ ALL_ST=WHOLEBUILDING_FL=STORY 2_SCH=A 3 ERV,Inlet,2
 Non-Parent Node Connection,NODE 71,HEATEXCHANGER:AIRTOAIR:SENSIBLEANDLATENT,SYS_3_PSZ ALL_ST=WHOLEBUILDING_FL=STORY 2_SCH=A 3 ERV,Outlet,2
 Non-Parent Node Connection,NODE 98,HEATEXCHANGER:AIRTOAIR:SENSIBLEANDLATENT,SYS_3_PSZ ALL_ST=WHOLEBUILDING_FL=STORY 2_SCH=A 4 ERV,Inlet,1
 Non-Parent Node Connection,NODE 215,HEATEXCHANGER:AIRTOAIR:SENSIBLEANDLATENT,SYS_3_PSZ ALL_ST=WHOLEBUILDING_FL=STORY 2_SCH=A 4 ERV,Outlet,1
 Non-Parent Node Connection,NODE 216,HEATEXCHANGER:AIRTOAIR:SENSIBLEANDLATENT,SYS_3_PSZ ALL_ST=WHOLEBUILDING_FL=STORY 2_SCH=A 4 ERV,Inlet,2
 Non-Parent Node Connection,NODE 99,HEATEXCHANGER:AIRTOAIR:SENSIBLEANDLATENT,SYS_3_PSZ ALL_ST=WHOLEBUILDING_FL=STORY 2_SCH=A 4 ERV,Outlet,2
 Non-Parent Node Connection,NODE 88,COIL:COOLING:DX:SINGLESPEED,COIL COOLING DX SINGLE SPEED 5 654KBTU/HR 8.21EER,Inlet,1
 Non-Parent Node Connection,NODE 87,COIL:COOLING:DX:SINGLESPEED,COIL COOLING DX SINGLE SPEED 5 654KBTU/HR 8.21EER,Outlet,1
 Non-Parent Node Connection,NODE 116,COIL:COOLING:DX:SINGLESPEED,COIL COOLING DX SINGLE SPEED 7 170KBTU/HR 9.08EER,Inlet,1
 Non-Parent Node Connection,NODE 115,COIL:COOLING:DX:SINGLESPEED,COIL COOLING DX SINGLE SPEED 7 170KBTU/HR 9.08EER,Outlet,1
 Non-Parent Node Connection,NODE 130,COIL:COOLING:DX:SINGLESPEED,COIL COOLING DX SINGLE SPEED 8 57KBTU/HR 14.0SEER,Inlet,1
 Non-Parent Node Connection,NODE 129,COIL:COOLING:DX:SINGLESPEED,COIL COOLING DX SINGLE SPEED 8 57KBTU/HR 14.0SEER,Outlet,1
 Non-Parent Node Connection,NODE 144,COIL:COOLING:DX:SINGLESPEED,COIL COOLING DX SINGLE SPEED 9 85KBTU/HR 9.26EER,Inlet,1
 Non-Parent Node Connection,NODE 143,COIL:COOLING:DX:SINGLESPEED,COIL COOLING DX SINGLE SPEED 9 85KBTU/HR 9.26EER,Outlet,1
 Non-Parent Node Connection,NODE 158,COIL:COOLING:DX:SINGLESPEED,COIL COOLING DX SINGLE SPEED 10 150KBTU/HR 9.08EER,Inlet,1
 Non-Parent Node Connection,NODE 157,COIL:COOLING:DX:SINGLESPEED,COIL COOLING DX SINGLE SPEED 10 150KBTU/HR 9.08EER,Outlet,1
 Non-Parent Node Connection,NODE 33,COIL:COOLING:DX:SINGLESPEED,COIL COOLING DX SINGLE SPEED 1 187KBTU/HR 9.08EER,Inlet,1
 Non-Parent Node Connection,NODE 32,COIL:COOLING:DX:SINGLESPEED,COIL COOLING DX SINGLE SPEED 1 187KBTU/HR 9.08EER,Outlet,1
 Non-Parent Node Connection,NODE 46,COIL:COOLING:DX:SINGLESPEED,COIL COOLING DX SINGLE SPEED 2 91KBTU/HR 9.26EER,Inlet,1
 Non-Parent Node Connection,NODE 45,COIL:COOLING:DX:SINGLESPEED,COIL COOLING DX SINGLE SPEED 2 91KBTU/HR 9.26EER,Outlet,1
 Non-Parent Node Connection,NODE 60,COIL:COOLING:DX:SINGLESPEED,COIL COOLING DX SINGLE SPEED 3 208KBTU/HR 9.08EER,Inlet,1
 Non-Parent Node Connection,NODE 59,COIL:COOLING:DX:SINGLESPEED,COIL COOLING DX SINGLE SPEED 3 208KBTU/HR 9.08EER,Outlet,1
 Non-Parent Node Connection,NODE 74,COIL:COOLING:DX:SINGLESPEED,COIL COOLING DX SINGLE SPEED 4 128KBTU/HR 9.26EER,Inlet,1
 Non-Parent Node Connection,NODE 73,COIL:COOLING:DX:SINGLESPEED,COIL COOLING DX SINGLE SPEED 4 128KBTU/HR 9.26EER,Outlet,1
 Non-Parent Node Connection,NODE 102,COIL:COOLING:DX:SINGLESPEED,COIL COOLING DX SINGLE SPEED 6 1134KBTU/HR 7.94EER,Inlet,1
 Non-Parent Node Connection,NODE 101,COIL:COOLING:DX:SINGLESPEED,COIL COOLING DX SINGLE SPEED 6 1134KBTU/HR 7.94EER,Outlet,1
 Non-Parent Node Connection,NODE 87,COIL:HEATING:FUEL,COIL HEATING GAS 5,Inlet,1
 Non-Parent Node Connection,NODE 86,COIL:HEATING:FUEL,COIL HEATING GAS 5,Outlet,1
 Non-Parent Node Connection,NODE 86,COIL:HEATING:FUEL,COIL HEATING GAS 5,Sensor,1
 Non-Parent Node Connection,NODE 115,COIL:HEATING:FUEL,COIL HEATING GAS 7,Inlet,1
 Non-Parent Node Connection,NODE 114,COIL:HEATING:FUEL,COIL HEATING GAS 7,Outlet,1
 Non-Parent Node Connection,NODE 114,COIL:HEATING:FUEL,COIL HEATING GAS 7,Sensor,1
 Non-Parent Node Connection,NODE 129,COIL:HEATING:FUEL,COIL HEATING GAS 8,Inlet,1
 Non-Parent Node Connection,NODE 128,COIL:HEATING:FUEL,COIL HEATING GAS 8,Outlet,1
 Non-Parent Node Connection,NODE 128,COIL:HEATING:FUEL,COIL HEATING GAS 8,Sensor,1
 Non-Parent Node Connection,NODE 143,COIL:HEATING:FUEL,COIL HEATING GAS 9,Inlet,1
 Non-Parent Node Connection,NODE 142,COIL:HEATING:FUEL,COIL HEATING GAS 9,Outlet,1
 Non-Parent Node Connection,NODE 142,COIL:HEATING:FUEL,COIL HEATING GAS 9,Sensor,1
 Non-Parent Node Connection,NODE 157,COIL:HEATING:FUEL,COIL HEATING GAS 10,Inlet,1
 Non-Parent Node Connection,NODE 156,COIL:HEATING:FUEL,COIL HEATING GAS 10,Outlet,1
 Non-Parent Node Connection,NODE 156,COIL:HEATING:FUEL,COIL HEATING GAS 10,Sensor,1
 Non-Parent Node Connection,NODE 32,COIL:HEATING:FUEL,COIL HEATING GAS 1,Inlet,1
 Non-Parent Node Connection,NODE 31,COIL:HEATING:FUEL,COIL HEATING GAS 1,Outlet,1
 Non-Parent Node Connection,NODE 31,COIL:HEATING:FUEL,COIL HEATING GAS 1,Sensor,1
 Non-Parent Node Connection,NODE 45,COIL:HEATING:FUEL,COIL HEATING GAS 2,Inlet,1
 Non-Parent Node Connection,NODE 44,COIL:HEATING:FUEL,COIL HEATING GAS 2,Outlet,1
 Non-Parent Node Connection,NODE 44,COIL:HEATING:FUEL,COIL HEATING GAS 2,Sensor,1
 Non-Parent Node Connection,NODE 59,COIL:HEATING:FUEL,COIL HEATING GAS 3,Inlet,1
 Non-Parent Node Connection,NODE 58,COIL:HEATING:FUEL,COIL HEATING GAS 3,Outlet,1
 Non-Parent Node Connection,NODE 58,COIL:HEATING:FUEL,COIL HEATING GAS 3,Sensor,1
 Non-Parent Node Connection,NODE 73,COIL:HEATING:FUEL,COIL HEATING GAS 4,Inlet,1
 Non-Parent Node Connection,NODE 72,COIL:HEATING:FUEL,COIL HEATING GAS 4,Outlet,1
 Non-Parent Node Connection,NODE 72,COIL:HEATING:FUEL,COIL HEATING GAS 4,Sensor,1
 Non-Parent Node Connection,NODE 101,COIL:HEATING:FUEL,COIL HEATING GAS 6,Inlet,1
 Non-Parent Node Connection,NODE 100,COIL:HEATING:FUEL,COIL HEATING GAS 6,Outlet,1
 Non-Parent Node Connection,NODE 100,COIL:HEATING:FUEL,COIL HEATING GAS 6,Sensor,1
 Non-Parent Node Connection,NODE 5,BOILER:HOTWATER,PRIMARY BOILER 1444KBTU/HR 0.83 THERMAL EFF,Inlet,1
 Non-Parent Node Connection,NODE 12,BOILER:HOTWATER,PRIMARY BOILER 1444KBTU/HR 0.83 THERMAL EFF,Outlet,1
 Non-Parent Node Connection,NODE 14,BOILER:HOTWATER,SECONDARY BOILER 0KBTU/HR 0.85 AFUE,Inlet,1
 Non-Parent Node Connection,NODE 15,BOILER:HOTWATER,SECONDARY BOILER 0KBTU/HR 0.85 AFUE,Outlet,1
 Non-Parent Node Connection,NODE 2,PUMP:VARIABLESPEED,PUMP VARIABLE SPEED 1,Inlet,1
 Non-Parent Node Connection,NODE 11,PUMP:VARIABLESPEED,PUMP VARIABLE SPEED 1,Outlet,1
 Non-Parent Node Connection,NODE 163,PUMP:CONSTANTSPEED,MAIN SERVICE WATER LOOP CIRCULATOR PUMP,Inlet,1
 Non-Parent Node Connection,NODE 169,PUMP:CONSTANTSPEED,MAIN SERVICE WATER LOOP CIRCULATOR PUMP,Outlet,1
