Program Version,EnergyPlus, Version 8.9.0-eba93e8e1b, YMD=2019.08.13 14:50
! This file shows details about the branches, nodes, and other
! elements of the flow connections.
! This file is intended for use in "debugging" potential problems
! that may also be detected by the program, but may be more easily
! identified by "eye".
! This file is also intended to support software which draws a
! schematic diagram of the HVAC system.
! ===============================================================
! #Nodes,<Number of Unique Nodes>
 #Nodes,1899
! <Node>,<NodeNumber>,<Node Name>,<Node Fluid Type>,<# Times Node Referenced After Definition>
 Node,1,NODE 668,Air,4
 Node,2,NODE 952,Air,3
 Node,3,NODE 951,Air,3
 Node,4,NODE 92,Air,3
 Node,5,NODE 96,Air,3
 Node,6,NODE 1046,Air,3
 Node,7,NODE 90,Air,3
 Node,8,NODE 1045,Air,3
 Node,9,NODE 155,Air,3
 Node,10,NODE 159,Air,3
 Node,11,NODE 1074,Air,3
 Node,12,NODE 153,Air,3
 Node,13,NODE 1073,Air,3
 Node,14,NODE 182,Air,3
 Node,15,NODE 186,Air,3
 Node,16,NODE 1010,Air,3
 Node,17,NODE 180,Air,3
 Node,18,NODE 1009,Air,3
 Node,19,NODE 301,Air,3
 Node,20,NODE 304,Air,3
 Node,21,NODE 1022,Air,3
 Node,22,NODE 300,Air,3
 Node,23,NODE 1021,Air,3
 Node,24,NODE 349,Air,3
 Node,25,NODE 352,Air,3
 Node,26,NODE 1020,Air,3
 Node,27,NODE 348,Air,3
 Node,28,NODE 1019,Air,3
 Node,29,NODE 421,Air,3
 Node,30,NODE 424,Air,3
 Node,31,NODE 1000,Air,3
 Node,32,NODE 420,Air,3
 Node,33,NODE 999,Air,3
 Node,34,NODE 433,Air,3
 Node,35,NODE 436,Air,3
 Node,36,NODE 1102,Air,3
 Node,37,NODE 432,Air,3
 Node,38,NODE 1101,Air,3
 Node,39,NODE 469,Air,3
 Node,40,NODE 472,Air,3
 Node,41,NODE 1066,Air,3
 Node,42,NODE 468,Air,3
 Node,43,NODE 1065,Air,3
 Node,44,NODE 39,Air,3
 Node,45,NODE 27,Air,3
 Node,46,NODE 1044,Air,3
 Node,47,NODE 38,Air,3
 Node,48,NODE 1043,Air,3
 Node,49,NODE 110,Air,3
 Node,50,NODE 114,Air,3
 Node,51,NODE 1088,Air,3
 Node,52,NODE 108,Air,3
 Node,53,NODE 1087,Air,3
 Node,54,NODE 271,Air,3
 Node,55,NODE 274,Air,3
 Node,56,NODE 1096,Air,3
 Node,57,NODE 270,Air,3
 Node,58,NODE 1095,Air,3
 Node,59,NODE 367,Air,3
 Node,60,NODE 370,Air,3
 Node,61,NODE 1130,Air,3
 Node,62,NODE 366,Air,3
 Node,63,NODE 1129,Air,3
 Node,64,NODE 373,Air,3
 Node,65,NODE 376,Air,3
 Node,66,NODE 1028,Air,3
 Node,67,NODE 372,Air,3
 Node,68,NODE 1027,Air,3
 Node,69,NODE 391,Air,3
 Node,70,NODE 394,Air,3
 Node,71,NODE 1006,Air,3
 Node,72,NODE 390,Air,3
 Node,73,NODE 1005,Air,3
 Node,74,NODE 475,Air,3
 Node,75,NODE 478,Air,3
 Node,76,NODE 996,Air,3
 Node,77,NODE 474,Air,3
 Node,78,NODE 995,Air,3
 Node,79,NODE 74,Air,3
 Node,80,NODE 78,Air,3
 Node,81,NODE 1054,Air,3
 Node,82,NODE 72,Air,3
 Node,83,NODE 1053,Air,3
 Node,84,NODE 164,Air,3
 Node,85,NODE 168,Air,3
 Node,86,NODE 1016,Air,3
 Node,87,NODE 162,Air,3
 Node,88,NODE 1015,Air,3
 Node,89,NODE 355,Air,3
 Node,90,NODE 358,Air,3
 Node,91,NODE 1092,Air,3
 Node,92,NODE 354,Air,3
 Node,93,NODE 1091,Air,3
 Node,94,NODE 385,Air,3
 Node,95,NODE 388,Air,3
 Node,96,NODE 1048,Air,3
 Node,97,NODE 384,Air,3
 Node,98,NODE 1047,Air,3
 Node,99,NODE 403,Air,3
 Node,100,NODE 406,Air,3
 Node,101,NODE 1008,Air,3
 Node,102,NODE 402,Air,3
 Node,103,NODE 1007,Air,3
 Node,104,NODE 445,Air,3
 Node,105,NODE 448,Air,3
 Node,106,NODE 1128,Air,3
 Node,107,NODE 444,Air,3
 Node,108,NODE 1127,Air,3
 Node,109,NODE 541,Air,3
 Node,110,NODE 544,Air,3
 Node,111,NODE 1072,Air,3
 Node,112,NODE 540,Air,3
 Node,113,NODE 1071,Air,3
 Node,114,NODE 553,Air,3
 Node,115,NODE 556,Air,3
 Node,116,NODE 980,Air,3
 Node,117,NODE 552,Air,3
 Node,118,NODE 979,Air,3
 Node,119,NODE 65,Air,3
 Node,120,NODE 69,Air,3
 Node,121,NODE 1050,Air,3
 Node,122,NODE 63,Air,3
 Node,123,NODE 1049,Air,3
 Node,124,NODE 146,Air,3
 Node,125,NODE 150,Air,3
 Node,126,NODE 1032,Air,3
 Node,127,NODE 144,Air,3
 Node,128,NODE 1031,Air,3
 Node,129,NODE 173,Air,3
 Node,130,NODE 177,Air,3
 Node,131,NODE 1062,Air,3
 Node,132,NODE 171,Air,3
 Node,133,NODE 1061,Air,3
 Node,134,NODE 379,Air,3
 Node,135,NODE 382,Air,3
 Node,136,NODE 1098,Air,3
 Node,137,NODE 378,Air,3
 Node,138,NODE 1097,Air,3
 Node,139,NODE 439,Air,3
 Node,140,NODE 442,Air,3
 Node,141,NODE 1078,Air,3
 Node,142,NODE 438,Air,3
 Node,143,NODE 1077,Air,3
 Node,144,NODE 451,Air,3
 Node,145,NODE 454,Air,3
 Node,146,NODE 1122,Air,3
 Node,147,NODE 450,Air,3
 Node,148,NODE 1121,Air,3
 Node,149,NODE 493,Air,3
 Node,150,NODE 496,Air,3
 Node,151,NODE 998,Air,3
 Node,152,NODE 492,Air,3
 Node,153,NODE 997,Air,3
 Node,154,NODE 571,Air,3
 Node,155,NODE 574,Air,3
 Node,156,NODE 974,Air,3
 Node,157,NODE 570,Air,3
 Node,158,NODE 973,Air,3
 Node,159,NODE 101,Air,3
 Node,160,NODE 105,Air,3
 Node,161,NODE 1076,Air,3
 Node,162,NODE 99,Air,3
 Node,163,NODE 1075,Air,3
 Node,164,NODE 254,Air,3
 Node,165,NODE 258,Air,3
 Node,166,NODE 1080,Air,3
 Node,167,NODE 252,Air,3
 Node,168,NODE 1079,Air,3
 Node,169,NODE 331,Air,3
 Node,170,NODE 334,Air,3
 Node,171,NODE 1120,Air,3
 Node,172,NODE 330,Air,3
 Node,173,NODE 1119,Air,3
 Node,174,NODE 343,Air,3
 Node,175,NODE 346,Air,3
 Node,176,NODE 1040,Air,3
 Node,177,NODE 342,Air,3
 Node,178,NODE 1039,Air,3
 Node,179,NODE 511,Air,3
 Node,180,NODE 514,Air,3
 Node,181,NODE 988,Air,3
 Node,182,NODE 510,Air,3
 Node,183,NODE 987,Air,3
 Node,184,NODE 517,Air,3
 Node,185,NODE 520,Air,3
 Node,186,NODE 1038,Air,3
 Node,187,NODE 516,Air,3
 Node,188,NODE 1037,Air,3
 Node,189,NODE 559,Air,3
 Node,190,NODE 562,Air,3
 Node,191,NODE 1030,Air,3
 Node,192,NODE 558,Air,3
 Node,193,NODE 1029,Air,3
 Node,194,NODE 583,Air,3
 Node,195,NODE 586,Air,3
 Node,196,NODE 1106,Air,3
 Node,197,NODE 582,Air,3
 Node,198,NODE 1105,Air,3
 Node,199,NODE 56,Air,3
 Node,200,NODE 60,Air,3
 Node,201,NODE 1108,Air,3
 Node,202,NODE 54,Air,3
 Node,203,NODE 1107,Air,3
 Node,204,NODE 119,Air,3
 Node,205,NODE 123,Air,3
 Node,206,NODE 1084,Air,3
 Node,207,NODE 117,Air,3
 Node,208,NODE 1083,Air,3
 Node,209,NODE 245,Air,3
 Node,210,NODE 249,Air,3
 Node,211,NODE 1068,Air,3
 Node,212,NODE 243,Air,3
 Node,213,NODE 1067,Air,3
 Node,214,NODE 263,Air,3
 Node,215,NODE 267,Air,3
 Node,216,NODE 1118,Air,3
 Node,217,NODE 261,Air,3
 Node,218,NODE 1117,Air,3
 Node,219,NODE 337,Air,3
 Node,220,NODE 340,Air,3
 Node,221,NODE 1018,Air,3
 Node,222,NODE 336,Air,3
 Node,223,NODE 1017,Air,3
 Node,224,NODE 505,Air,3
 Node,225,NODE 508,Air,3
 Node,226,NODE 990,Air,3
 Node,227,NODE 504,Air,3
 Node,228,NODE 989,Air,3
 Node,229,NODE 523,Air,3
 Node,230,NODE 526,Air,3
 Node,231,NODE 1094,Air,3
 Node,232,NODE 522,Air,3
 Node,233,NODE 1093,Air,3
 Node,234,NODE 547,Air,3
 Node,235,NODE 550,Air,3
 Node,236,NODE 982,Air,3
 Node,237,NODE 546,Air,3
 Node,238,NODE 981,Air,3
 Node,239,NODE 47,Air,3
 Node,240,NODE 51,Air,3
 Node,241,NODE 1036,Air,3
 Node,242,NODE 45,Air,3
 Node,243,NODE 1035,Air,3
 Node,244,NODE 128,Air,3
 Node,245,NODE 132,Air,3
 Node,246,NODE 1112,Air,3
 Node,247,NODE 126,Air,3
 Node,248,NODE 1111,Air,3
 Node,249,NODE 283,Air,3
 Node,250,NODE 286,Air,3
 Node,251,NODE 1100,Air,3
 Node,252,NODE 282,Air,3
 Node,253,NODE 1099,Air,3
 Node,254,NODE 289,Air,3
 Node,255,NODE 292,Air,3
 Node,256,NODE 1104,Air,3
 Node,257,NODE 288,Air,3
 Node,258,NODE 1103,Air,3
 Node,259,NODE 307,Air,3
 Node,260,NODE 310,Air,3
 Node,261,NODE 1114,Air,3
 Node,262,NODE 306,Air,3
 Node,263,NODE 1113,Air,3
 Node,264,NODE 409,Air,3
 Node,265,NODE 412,Air,3
 Node,266,NODE 1124,Air,3
 Node,267,NODE 408,Air,3
 Node,268,NODE 1123,Air,3
 Node,269,NODE 415,Air,3
 Node,270,NODE 418,Air,3
 Node,271,NODE 1002,Air,3
 Node,272,NODE 414,Air,3
 Node,273,NODE 1001,Air,3
 Node,274,NODE 529,Air,3
 Node,275,NODE 532,Air,3
 Node,276,NODE 986,Air,3
 Node,277,NODE 528,Air,3
 Node,278,NODE 985,Air,3
 Node,279,NODE 218,Air,3
 Node,280,NODE 222,Air,3
 Node,281,NODE 1014,Air,3
 Node,282,NODE 216,Air,3
 Node,283,NODE 1013,Air,3
 Node,284,NODE 277,Air,3
 Node,285,NODE 280,Air,3
 Node,286,NODE 1090,Air,3
 Node,287,NODE 276,Air,3
 Node,288,NODE 1089,Air,3
 Node,289,NODE 463,Air,3
 Node,290,NODE 466,Air,3
 Node,291,NODE 1056,Air,3
 Node,292,NODE 462,Air,3
 Node,293,NODE 1055,Air,3
 Node,294,NODE 481,Air,3
 Node,295,NODE 484,Air,3
 Node,296,NODE 992,Air,3
 Node,297,NODE 480,Air,3
 Node,298,NODE 991,Air,3
 Node,299,NODE 487,Air,3
 Node,300,NODE 490,Air,3
 Node,301,NODE 994,Air,3
 Node,302,NODE 486,Air,3
 Node,303,NODE 993,Air,3
 Node,304,NODE 535,Air,3
 Node,305,NODE 538,Air,3
 Node,306,NODE 984,Air,3
 Node,307,NODE 534,Air,3
 Node,308,NODE 983,Air,3
 Node,309,NODE 565,Air,3
 Node,310,NODE 568,Air,3
 Node,311,NODE 978,Air,3
 Node,312,NODE 564,Air,3
 Node,313,NODE 977,Air,3
 Node,314,NODE 577,Air,3
 Node,315,NODE 580,Air,3
 Node,316,NODE 976,Air,3
 Node,317,NODE 576,Air,3
 Node,318,NODE 975,Air,3
 Node,319,NODE 83,Air,3
 Node,320,NODE 87,Air,3
 Node,321,NODE 1052,Air,3
 Node,322,NODE 81,Air,3
 Node,323,NODE 1051,Air,3
 Node,324,NODE 137,Air,3
 Node,325,NODE 141,Air,3
 Node,326,NODE 1058,Air,3
 Node,327,NODE 135,Air,3
 Node,328,NODE 1057,Air,3
 Node,329,NODE 209,Air,3
 Node,330,NODE 213,Air,3
 Node,331,NODE 1034,Air,3
 Node,332,NODE 207,Air,3
 Node,333,NODE 1033,Air,3
 Node,334,NODE 236,Air,3
 Node,335,NODE 240,Air,3
 Node,336,NODE 1042,Air,3
 Node,337,NODE 234,Air,3
 Node,338,NODE 1041,Air,3
 Node,339,NODE 361,Air,3
 Node,340,NODE 364,Air,3
 Node,341,NODE 1126,Air,3
 Node,342,NODE 360,Air,3
 Node,343,NODE 1125,Air,3
 Node,344,NODE 397,Air,3
 Node,345,NODE 400,Air,3
 Node,346,NODE 1004,Air,3
 Node,347,NODE 396,Air,3
 Node,348,NODE 1003,Air,3
 Node,349,NODE 457,Air,3
 Node,350,NODE 460,Air,3
 Node,351,NODE 1116,Air,3
 Node,352,NODE 456,Air,3
 Node,353,NODE 1115,Air,3
 Node,354,NODE 499,Air,3
 Node,355,NODE 502,Air,3
 Node,356,NODE 1060,Air,3
 Node,357,NODE 498,Air,3
 Node,358,NODE 1059,Air,3
 Node,359,NODE 191,Air,3
 Node,360,NODE 195,Air,3
 Node,361,NODE 1024,Air,3
 Node,362,NODE 189,Air,3
 Node,363,NODE 1023,Air,3
 Node,364,NODE 200,Air,3
 Node,365,NODE 204,Air,3
 Node,366,NODE 1064,Air,3
 Node,367,NODE 198,Air,3
 Node,368,NODE 1063,Air,3
 Node,369,NODE 227,Air,3
 Node,370,NODE 231,Air,3
 Node,371,NODE 1012,Air,3
 Node,372,NODE 225,Air,3
 Node,373,NODE 1011,Air,3
 Node,374,NODE 295,Air,3
 Node,375,NODE 298,Air,3
 Node,376,NODE 1110,Air,3
 Node,377,NODE 294,Air,3
 Node,378,NODE 1109,Air,3
 Node,379,NODE 313,Air,3
 Node,380,NODE 316,Air,3
 Node,381,NODE 1070,Air,3
 Node,382,NODE 312,Air,3
 Node,383,NODE 1069,Air,3
 Node,384,NODE 319,Air,3
 Node,385,NODE 322,Air,3
 Node,386,NODE 1086,Air,3
 Node,387,NODE 318,Air,3
 Node,388,NODE 1085,Air,3
 Node,389,NODE 325,Air,3
 Node,390,NODE 328,Air,3
 Node,391,NODE 1082,Air,3
 Node,392,NODE 324,Air,3
 Node,393,NODE 1081,Air,3
 Node,394,NODE 427,Air,3
 Node,395,NODE 430,Air,3
 Node,396,NODE 1026,Air,3
 Node,397,NODE 426,Air,3
 Node,398,NODE 1025,Air,3
 Node,399,NODE 592,Air,3
 Node,400,NODE 966,Air,3
 Node,401,NODE 965,Air,3
 Node,402,NODE 613,Air,3
 Node,403,NODE 972,Air,3
 Node,404,NODE 971,Air,3
 Node,405,NODE 617,Air,3
 Node,406,NODE 960,Air,3
 Node,407,NODE 959,Air,3
 Node,408,NODE 629,Air,3
 Node,409,NODE 956,Air,3
 Node,410,NODE 955,Air,3
 Node,411,NODE 609,Air,3
 Node,412,NODE 964,Air,3
 Node,413,NODE 963,Air,3
 Node,414,NODE 625,Air,3
 Node,415,NODE 958,Air,3
 Node,416,NODE 957,Air,3
 Node,417,NODE 633,Air,3
 Node,418,NODE 954,Air,3
 Node,419,NODE 953,Air,3
 Node,420,NODE 621,Air,3
 Node,421,NODE 968,Air,3
 Node,422,NODE 967,Air,3
 Node,423,NODE 605,Air,3
 Node,424,NODE 970,Air,3
 Node,425,NODE 969,Air,3
 Node,426,NODE 601,Air,3
 Node,427,NODE 962,Air,3
 Node,428,NODE 961,Air,3
 Node,429,NODE 23,Air,10
 Node,430,NODE 24,Air,3
 Node,431,NODE 589,Air,11
 Node,432,NODE 590,Air,3
 Node,433,NODE 665,Air,12
 Node,434,NODE 666,Air,3
 Node,435,NODE 21,Air,4
 Node,436,NODE 36,Air,8
 Node,437,NODE 35,Air,6
 Node,438,NODE 871,Air,8
 Node,439,NODE 588,Air,4
 Node,440,NODE 597,Air,8
 Node,441,NODE 596,Air,6
 Node,442,NODE 854,Air,7
 Node,443,NODE 664,Air,2
 Node,444,NODE 675,Air,6
 Node,445,NODE 674,Air,7
 Node,446,NODE 673,Air,5
 Node,447,NODE 672,Air,9
 Node,448,NODE 637,Water,2
 Node,449,NODE 643,Water,1
 Node,450,NODE 639,Water,1
 Node,451,NODE 644,Water,1
 Node,452,NODE 645,Water,1
 Node,453,NODE 646,Water,1
 Node,454,NODE 647,Water,1
 Node,455,NODE 648,Water,1
 Node,456,NODE 649,Water,1
 Node,457,NODE 638,Water,4
 Node,458,NODE 640,Water,2
 Node,459,CHILLED WATER LOOP DEMAND INLET PIPE NODE,Water,1
 Node,460,NODE 642,Water,2
 Node,461,NODE 669,Water,1
 Node,462,CHILLED WATER LOOP DEMAND BYPASS PIPE INLET NODE,Water,1
 Node,463,CHILLED WATER LOOP DEMAND BYPASS PIPE OUTLET NODE,Water,1
 Node,464,CHILLED WATER LOOP DEMAND OUTLET PIPE NODE,Water,1
 Node,465,NODE 641,Water,2
 Node,466,NODE 650,Water,2
 Node,467,NODE 656,Water,1
 Node,468,NODE 652,Water,1
 Node,469,NODE 657,Water,1
 Node,470,NODE 658,Water,1
 Node,471,NODE 659,Water,1
 Node,472,NODE 660,Water,1
 Node,473,NODE 651,Water,4
 Node,474,NODE 653,Water,2
 Node,475,CONDENSER WATER LOOP DEMAND INLET PIPE NODE,Water,1
 Node,476,NODE 655,Water,1
 Node,477,NODE 661,Water,1
 Node,478,NODE 662,Water,1
 Node,479,NODE 663,Water,1
 Node,480,CONDENSER WATER LOOP DEMAND BYPASS PIPE INLET NODE,Water,1
 Node,481,CONDENSER WATER LOOP DEMAND BYPASS PIPE OUTLET NODE,Water,1
 Node,482,CONDENSER WATER LOOP DEMAND OUTLET PIPE NODE,Water,1
 Node,483,NODE 654,Water,2
 Node,484,NODE 2,Water,2
 Node,485,NODE 11,Water,1
 Node,486,NODE 5,Water,1
 Node,487,NODE 12,Water,1
 Node,488,NODE 14,Water,1
 Node,489,NODE 15,Water,1
 Node,490,NODE 17,Water,1
 Node,491,NODE 18,Water,1
 Node,492,NODE 20,Water,1
 Node,493,NODE 3,Water,4
 Node,494,NODE 6,Water,2
 Node,495,HOT WATER LOOP DEMAND INLET PIPE NODE,Water,1
 Node,496,NODE 9,Water,2
 Node,497,NODE 29,Water,1
 Node,498,NODE 41,Water,1
 Node,499,NODE 42,Water,1
 Node,500,NODE 48,Water,1
 Node,501,NODE 50,Water,1
 Node,502,NODE 57,Water,1
 Node,503,NODE 59,Water,1
 Node,504,NODE 66,Water,1
 Node,505,NODE 68,Water,1
 Node,506,NODE 75,Water,1
 Node,507,NODE 77,Water,1
 Node,508,NODE 84,Water,1
 Node,509,NODE 86,Water,1
 Node,510,NODE 93,Water,1
 Node,511,NODE 95,Water,1
 Node,512,NODE 102,Water,1
 Node,513,NODE 104,Water,1
 Node,514,NODE 111,Water,1
 Node,515,NODE 113,Water,1
 Node,516,NODE 120,Water,1
 Node,517,NODE 122,Water,1
 Node,518,NODE 129,Water,1
 Node,519,NODE 131,Water,1
 Node,520,NODE 138,Water,1
 Node,521,NODE 140,Water,1
 Node,522,NODE 147,Water,1
 Node,523,NODE 149,Water,1
 Node,524,NODE 156,Water,1
 Node,525,NODE 158,Water,1
 Node,526,NODE 165,Water,1
 Node,527,NODE 167,Water,1
 Node,528,NODE 174,Water,1
 Node,529,NODE 176,Water,1
 Node,530,NODE 183,Water,1
 Node,531,NODE 185,Water,1
 Node,532,NODE 192,Water,1
 Node,533,NODE 194,Water,1
 Node,534,NODE 201,Water,1
 Node,535,NODE 203,Water,1
 Node,536,NODE 210,Water,1
 Node,537,NODE 212,Water,1
 Node,538,NODE 219,Water,1
 Node,539,NODE 221,Water,1
 Node,540,NODE 228,Water,1
 Node,541,NODE 230,Water,1
 Node,542,NODE 237,Water,1
 Node,543,NODE 239,Water,1
 Node,544,NODE 246,Water,1
 Node,545,NODE 248,Water,1
 Node,546,NODE 255,Water,1
 Node,547,NODE 257,Water,1
 Node,548,NODE 264,Water,1
 Node,549,NODE 266,Water,1
 Node,550,NODE 272,Water,1
 Node,551,NODE 273,Water,1
 Node,552,NODE 278,Water,1
 Node,553,NODE 279,Water,1
 Node,554,NODE 284,Water,1
 Node,555,NODE 285,Water,1
 Node,556,NODE 290,Water,1
 Node,557,NODE 291,Water,1
 Node,558,NODE 296,Water,1
 Node,559,NODE 297,Water,1
 Node,560,NODE 302,Water,1
 Node,561,NODE 303,Water,1
 Node,562,NODE 308,Water,1
 Node,563,NODE 309,Water,1
 Node,564,NODE 314,Water,1
 Node,565,NODE 315,Water,1
 Node,566,NODE 320,Water,1
 Node,567,NODE 321,Water,1
 Node,568,NODE 326,Water,1
 Node,569,NODE 327,Water,1
 Node,570,NODE 332,Water,1
 Node,571,NODE 333,Water,1
 Node,572,NODE 338,Water,1
 Node,573,NODE 339,Water,1
 Node,574,NODE 344,Water,1
 Node,575,NODE 345,Water,1
 Node,576,NODE 350,Water,1
 Node,577,NODE 351,Water,1
 Node,578,NODE 356,Water,1
 Node,579,NODE 357,Water,1
 Node,580,NODE 362,Water,1
 Node,581,NODE 363,Water,1
 Node,582,NODE 368,Water,1
 Node,583,NODE 369,Water,1
 Node,584,NODE 374,Water,1
 Node,585,NODE 375,Water,1
 Node,586,NODE 380,Water,1
 Node,587,NODE 381,Water,1
 Node,588,NODE 386,Water,1
 Node,589,NODE 387,Water,1
 Node,590,NODE 392,Water,1
 Node,591,NODE 393,Water,1
 Node,592,NODE 398,Water,1
 Node,593,NODE 399,Water,1
 Node,594,NODE 404,Water,1
 Node,595,NODE 405,Water,1
 Node,596,NODE 410,Water,1
 Node,597,NODE 411,Water,1
 Node,598,NODE 416,Water,1
 Node,599,NODE 417,Water,1
 Node,600,NODE 422,Water,1
 Node,601,NODE 423,Water,1
 Node,602,NODE 428,Water,1
 Node,603,NODE 429,Water,1
 Node,604,NODE 434,Water,1
 Node,605,NODE 435,Water,1
 Node,606,NODE 440,Water,1
 Node,607,NODE 441,Water,1
 Node,608,NODE 446,Water,1
 Node,609,NODE 447,Water,1
 Node,610,NODE 452,Water,1
 Node,611,NODE 453,Water,1
 Node,612,NODE 458,Water,1
 Node,613,NODE 459,Water,1
 Node,614,NODE 464,Water,1
 Node,615,NODE 465,Water,1
 Node,616,NODE 470,Water,1
 Node,617,NODE 471,Water,1
 Node,618,NODE 476,Water,1
 Node,619,NODE 477,Water,1
 Node,620,NODE 482,Water,1
 Node,621,NODE 483,Water,1
 Node,622,NODE 488,Water,1
 Node,623,NODE 489,Water,1
 Node,624,NODE 494,Water,1
 Node,625,NODE 495,Water,1
 Node,626,NODE 500,Water,1
 Node,627,NODE 501,Water,1
 Node,628,NODE 506,Water,1
 Node,629,NODE 507,Water,1
 Node,630,NODE 512,Water,1
 Node,631,NODE 513,Water,1
 Node,632,NODE 518,Water,1
 Node,633,NODE 519,Water,1
 Node,634,NODE 524,Water,1
 Node,635,NODE 525,Water,1
 Node,636,NODE 530,Water,1
 Node,637,NODE 531,Water,1
 Node,638,NODE 536,Water,1
 Node,639,NODE 537,Water,1
 Node,640,NODE 542,Water,1
 Node,641,NODE 543,Water,1
 Node,642,NODE 548,Water,1
 Node,643,NODE 549,Water,1
 Node,644,NODE 554,Water,1
 Node,645,NODE 555,Water,1
 Node,646,NODE 560,Water,1
 Node,647,NODE 561,Water,1
 Node,648,NODE 566,Water,1
 Node,649,NODE 567,Water,1
 Node,650,NODE 572,Water,1
 Node,651,NODE 573,Water,1
 Node,652,NODE 578,Water,1
 Node,653,NODE 579,Water,1
 Node,654,NODE 584,Water,1
 Node,655,NODE 585,Water,1
 Node,656,NODE 599,Water,1
 Node,657,NODE 600,Water,1
 Node,658,NODE 603,Water,1
 Node,659,NODE 604,Water,1
 Node,660,NODE 607,Water,1
 Node,661,NODE 608,Water,1
 Node,662,NODE 611,Water,1
 Node,663,NODE 612,Water,1
 Node,664,NODE 615,Water,1
 Node,665,NODE 616,Water,1
 Node,666,NODE 619,Water,1
 Node,667,NODE 620,Water,1
 Node,668,NODE 623,Water,1
 Node,669,NODE 624,Water,1
 Node,670,NODE 627,Water,1
 Node,671,NODE 628,Water,1
 Node,672,NODE 631,Water,1
 Node,673,NODE 632,Water,1
 Node,674,NODE 635,Water,1
 Node,675,NODE 636,Water,1
 Node,676,NODE 678,Water,1
 Node,677,NODE 679,Water,1
 Node,678,HOT WATER LOOP DEMAND BYPASS PIPE INLET NODE,Water,1
 Node,679,HOT WATER LOOP DEMAND BYPASS PIPE OUTLET NODE,Water,1
 Node,680,HOT WATER LOOP DEMAND OUTLET PIPE NODE,Water,1
 Node,681,NODE 8,Water,2
 Node,682,NODE 680,Water,2
 Node,683,NODE 686,Water,1
 Node,684,NODE 682,Water,1
 Node,685,NODE 687,Water,1
 Node,686,NODE 688,Water,1
 Node,687,NODE 689,Water,1
 Node,688,NODE 691,Water,1
 Node,689,NODE 681,Water,4
 Node,690,NODE 683,Water,2
 Node,691,NODE 692,Water,1
 Node,692,NODE 685,Water,1
 Node,693,NODE 690,Water,1
 Node,694,NODE 694,Water,1
 Node,695,NODE 695,Water,1
 Node,696,NODE 696,Water,1
 Node,697,NODE 697,Water,1
 Node,698,NODE 698,Water,1
 Node,699,NODE 699,Water,1
 Node,700,NODE 700,Water,1
 Node,701,NODE 701,Water,1
 Node,702,NODE 702,Water,1
 Node,703,NODE 703,Water,1
 Node,704,NODE 704,Water,1
 Node,705,NODE 705,Water,1
 Node,706,NODE 706,Water,1
 Node,707,NODE 707,Water,1
 Node,708,NODE 708,Water,1
 Node,709,NODE 709,Water,1
 Node,710,NODE 710,Water,1
 Node,711,NODE 711,Water,1
 Node,712,NODE 712,Water,1
 Node,713,NODE 713,Water,1
 Node,714,NODE 714,Water,1
 Node,715,NODE 715,Water,1
 Node,716,NODE 716,Water,1
 Node,717,NODE 717,Water,1
 Node,718,NODE 718,Water,1
 Node,719,NODE 719,Water,1
 Node,720,NODE 720,Water,1
 Node,721,NODE 721,Water,1
 Node,722,NODE 722,Water,1
 Node,723,NODE 723,Water,1
 Node,724,NODE 724,Water,1
 Node,725,NODE 725,Water,1
 Node,726,NODE 726,Water,1
 Node,727,NODE 727,Water,1
 Node,728,NODE 728,Water,1
 Node,729,NODE 729,Water,1
 Node,730,NODE 730,Water,1
 Node,731,NODE 731,Water,1
 Node,732,NODE 732,Water,1
 Node,733,NODE 733,Water,1
 Node,734,NODE 734,Water,1
 Node,735,NODE 735,Water,1
 Node,736,NODE 736,Water,1
 Node,737,NODE 737,Water,1
 Node,738,NODE 738,Water,1
 Node,739,NODE 739,Water,1
 Node,740,NODE 740,Water,1
 Node,741,NODE 741,Water,1
 Node,742,NODE 742,Water,1
 Node,743,NODE 743,Water,1
 Node,744,NODE 744,Water,1
 Node,745,NODE 745,Water,1
 Node,746,NODE 746,Water,1
 Node,747,NODE 747,Water,1
 Node,748,NODE 748,Water,1
 Node,749,NODE 749,Water,1
 Node,750,NODE 750,Water,1
 Node,751,NODE 751,Water,1
 Node,752,NODE 752,Water,1
 Node,753,NODE 753,Water,1
 Node,754,NODE 754,Water,1
 Node,755,NODE 755,Water,1
 Node,756,NODE 756,Water,1
 Node,757,NODE 757,Water,1
 Node,758,NODE 758,Water,1
 Node,759,NODE 759,Water,1
 Node,760,NODE 760,Water,1
 Node,761,NODE 761,Water,1
 Node,762,NODE 762,Water,1
 Node,763,NODE 763,Water,1
 Node,764,NODE 764,Water,1
 Node,765,NODE 765,Water,1
 Node,766,NODE 766,Water,1
 Node,767,NODE 767,Water,1
 Node,768,NODE 768,Water,1
 Node,769,NODE 769,Water,1
 Node,770,NODE 770,Water,1
 Node,771,NODE 771,Water,1
 Node,772,NODE 772,Water,1
 Node,773,NODE 773,Water,1
 Node,774,NODE 774,Water,1
 Node,775,NODE 775,Water,1
 Node,776,NODE 776,Water,1
 Node,777,NODE 777,Water,1
 Node,778,NODE 778,Water,1
 Node,779,NODE 779,Water,1
 Node,780,NODE 780,Water,1
 Node,781,NODE 781,Water,1
 Node,782,NODE 782,Water,1
 Node,783,NODE 783,Water,1
 Node,784,NODE 784,Water,1
 Node,785,NODE 785,Water,1
 Node,786,NODE 786,Water,1
 Node,787,NODE 787,Water,1
 Node,788,NODE 788,Water,1
 Node,789,NODE 789,Water,1
 Node,790,NODE 790,Water,1
 Node,791,NODE 791,Water,1
 Node,792,NODE 792,Water,1
 Node,793,NODE 793,Water,1
 Node,794,NODE 794,Water,1
 Node,795,NODE 795,Water,1
 Node,796,NODE 796,Water,1
 Node,797,NODE 797,Water,1
 Node,798,NODE 798,Water,1
 Node,799,NODE 799,Water,1
 Node,800,NODE 800,Water,1
 Node,801,NODE 801,Water,1
 Node,802,NODE 802,Water,1
 Node,803,NODE 803,Water,1
 Node,804,NODE 804,Water,1
 Node,805,NODE 805,Water,1
 Node,806,NODE 806,Water,1
 Node,807,NODE 807,Water,1
 Node,808,NODE 808,Water,1
 Node,809,NODE 809,Water,1
 Node,810,NODE 810,Water,1
 Node,811,NODE 811,Water,1
 Node,812,NODE 812,Water,1
 Node,813,NODE 813,Water,1
 Node,814,NODE 814,Water,1
 Node,815,NODE 815,Water,1
 Node,816,NODE 816,Water,1
 Node,817,NODE 817,Water,1
 Node,818,NODE 818,Water,1
 Node,819,NODE 819,Water,1
 Node,820,NODE 820,Water,1
 Node,821,NODE 821,Water,1
 Node,822,NODE 822,Water,1
 Node,823,NODE 823,Water,1
 Node,824,NODE 824,Water,1
 Node,825,NODE 825,Water,1
 Node,826,NODE 826,Water,1
 Node,827,NODE 827,Water,1
 Node,828,NODE 828,Water,1
 Node,829,NODE 829,Water,1
 Node,830,NODE 830,Water,1
 Node,831,NODE 831,Water,1
 Node,832,NODE 832,Water,1
 Node,833,NODE 833,Water,1
 Node,834,NODE 834,Water,1
 Node,835,NODE 835,Water,1
 Node,836,NODE 836,Water,1
 Node,837,NODE 837,Water,1
 Node,838,NODE 838,Water,1
 Node,839,NODE 839,Water,1
 Node,840,NODE 840,Water,1
 Node,841,NODE 841,Water,1
 Node,842,NODE 842,Water,1
 Node,843,NODE 843,Water,1
 Node,844,NODE 844,Water,1
 Node,845,NODE 845,Water,1
 Node,846,NODE 846,Water,1
 Node,847,NODE 847,Water,1
 Node,848,NODE 848,Water,1
 Node,849,NODE 849,Water,1
 Node,850,NODE 850,Water,1
 Node,851,NODE 851,Water,1
 Node,852,NODE 852,Water,1
 Node,853,NODE 853,Water,1
 Node,854,MAIN SERVICE WATER LOOP DEMAND BYPASS PIPE INLET NODE,Water,1
 Node,855,MAIN SERVICE WATER LOOP DEMAND BYPASS PIPE OUTLET NODE,Water,1
 Node,856,NODE 693,Water,1
 Node,857,NODE 684,Water,2
 Node,858,NODE 238,Air,0
 Node,859,NODE 676,Air,1
 Node,860,NODE 19,Air,0
 Node,861,NODE 98,Air,1
 Node,862,NODE 40,Air,0
 Node,863,NODE 161,Air,1
 Node,864,NODE 49,Air,0
 Node,865,NODE 188,Air,1
 Node,866,NODE 94,Air,0
 Node,867,NODE 305,Air,1
 Node,868,NODE 118,Air,0
 Node,869,NODE 353,Air,1
 Node,870,NODE 154,Air,0
 Node,871,NODE 425,Air,1
 Node,872,NODE 160,Air,0
 Node,873,NODE 437,Air,1
 Node,874,NODE 178,Air,0
 Node,875,NODE 473,Air,1
 Node,876,NODE 1,Air,0
 Node,877,NODE 44,Air,1
 Node,878,NODE 25,Air,0
 Node,879,NODE 116,Air,1
 Node,880,NODE 79,Air,0
 Node,881,NODE 275,Air,1
 Node,882,NODE 127,Air,0
 Node,883,NODE 371,Air,1
 Node,884,NODE 130,Air,0
 Node,885,NODE 377,Air,1
 Node,886,NODE 139,Air,0
 Node,887,NODE 395,Air,1
 Node,888,NODE 181,Air,0
 Node,889,NODE 479,Air,1
 Node,890,NODE 13,Air,0
 Node,891,NODE 80,Air,1
 Node,892,NODE 43,Air,0
 Node,893,NODE 170,Air,1
 Node,894,NODE 121,Air,0
 Node,895,NODE 359,Air,1
 Node,896,NODE 136,Air,0
 Node,897,NODE 389,Air,1
 Node,898,NODE 145,Air,0
 Node,899,NODE 407,Air,1
 Node,900,NODE 166,Air,0
 Node,901,NODE 449,Air,1
 Node,902,NODE 214,Air,0
 Node,903,NODE 545,Air,1
 Node,904,NODE 220,Air,0
 Node,905,NODE 557,Air,1
 Node,906,NODE 10,Air,0
 Node,907,NODE 71,Air,1
 Node,908,NODE 37,Air,0
 Node,909,NODE 152,Air,1
 Node,910,NODE 46,Air,0
 Node,911,NODE 179,Air,1
 Node,912,NODE 133,Air,0
 Node,913,NODE 383,Air,1
 Node,914,NODE 163,Air,0
 Node,915,NODE 443,Air,1
 Node,916,NODE 169,Air,0
 Node,917,NODE 455,Air,1
 Node,918,NODE 190,Air,0
 Node,919,NODE 497,Air,1
 Node,920,NODE 229,Air,0
 Node,921,NODE 575,Air,1
 Node,922,NODE 22,Air,0
 Node,923,NODE 107,Air,1
 Node,924,NODE 73,Air,0
 Node,925,NODE 260,Air,1
 Node,926,NODE 109,Air,0
 Node,927,NODE 335,Air,1
 Node,928,NODE 115,Air,0
 Node,929,NODE 347,Air,1
 Node,930,NODE 199,Air,0
 Node,931,NODE 515,Air,1
 Node,932,NODE 202,Air,0
 Node,933,NODE 521,Air,1
 Node,934,NODE 223,Air,0
 Node,935,NODE 563,Air,1
 Node,936,NODE 235,Air,0
 Node,937,NODE 587,Air,1
 Node,938,NODE 7,Air,0
 Node,939,NODE 62,Air,1
 Node,940,NODE 28,Air,0
 Node,941,NODE 125,Air,1
 Node,942,NODE 70,Air,0
 Node,943,NODE 251,Air,1
 Node,944,NODE 76,Air,0
 Node,945,NODE 269,Air,1
 Node,946,NODE 112,Air,0
 Node,947,NODE 341,Air,1
 Node,948,NODE 196,Air,0
 Node,949,NODE 509,Air,1
 Node,950,NODE 205,Air,0
 Node,951,NODE 527,Air,1
 Node,952,NODE 217,Air,0
 Node,953,NODE 551,Air,1
 Node,954,NODE 4,Air,0
 Node,955,NODE 53,Air,1
 Node,956,NODE 31,Air,0
 Node,957,NODE 134,Air,1
 Node,958,NODE 85,Air,0
 Node,959,NODE 287,Air,1
 Node,960,NODE 88,Air,0
 Node,961,NODE 293,Air,1
 Node,962,NODE 97,Air,0
 Node,963,NODE 311,Air,1
 Node,964,NODE 148,Air,0
 Node,965,NODE 413,Air,1
 Node,966,NODE 151,Air,0
 Node,967,NODE 419,Air,1
 Node,968,NODE 208,Air,0
 Node,969,NODE 533,Air,1
 Node,970,NODE 61,Air,0
 Node,971,NODE 224,Air,1
 Node,972,NODE 82,Air,0
 Node,973,NODE 281,Air,1
 Node,974,NODE 175,Air,0
 Node,975,NODE 467,Air,1
 Node,976,NODE 184,Air,0
 Node,977,NODE 485,Air,1
 Node,978,NODE 187,Air,0
 Node,979,NODE 491,Air,1
 Node,980,NODE 211,Air,0
 Node,981,NODE 539,Air,1
 Node,982,NODE 226,Air,0
 Node,983,NODE 569,Air,1
 Node,984,NODE 232,Air,0
 Node,985,NODE 581,Air,1
 Node,986,NODE 16,Air,0
 Node,987,NODE 89,Air,1
 Node,988,NODE 34,Air,0
 Node,989,NODE 143,Air,1
 Node,990,NODE 58,Air,0
 Node,991,NODE 215,Air,1
 Node,992,NODE 67,Air,0
 Node,993,NODE 242,Air,1
 Node,994,NODE 124,Air,0
 Node,995,NODE 365,Air,1
 Node,996,NODE 142,Air,0
 Node,997,NODE 401,Air,1
 Node,998,NODE 172,Air,0
 Node,999,NODE 461,Air,1
 Node,1000,NODE 193,Air,0
 Node,1001,NODE 503,Air,1
 Node,1002,NODE 52,Air,0
 Node,1003,NODE 197,Air,1
 Node,1004,NODE 55,Air,0
 Node,1005,NODE 206,Air,1
 Node,1006,NODE 64,Air,0
 Node,1007,NODE 233,Air,1
 Node,1008,NODE 91,Air,0
 Node,1009,NODE 299,Air,1
 Node,1010,NODE 100,Air,0
 Node,1011,NODE 317,Air,1
 Node,1012,NODE 103,Air,0
 Node,1013,NODE 323,Air,1
 Node,1014,NODE 106,Air,0
 Node,1015,NODE 329,Air,1
 Node,1016,NODE 157,Air,0
 Node,1017,NODE 431,Air,1
 Node,1018,NODE 241,Air,0
 Node,1019,NODE 598,Air,1
 Node,1020,NODE 253,Air,0
 Node,1021,NODE 614,Air,1
 Node,1022,NODE 256,Air,0
 Node,1023,NODE 618,Air,1
 Node,1024,NODE 265,Air,0
 Node,1025,NODE 630,Air,1
 Node,1026,NODE 250,Air,0
 Node,1027,NODE 610,Air,1
 Node,1028,NODE 262,Air,0
 Node,1029,NODE 626,Air,1
 Node,1030,NODE 268,Air,0
 Node,1031,NODE 634,Air,1
 Node,1032,NODE 259,Air,0
 Node,1033,NODE 622,Air,1
 Node,1034,NODE 247,Air,0
 Node,1035,NODE 606,Air,1
 Node,1036,NODE 244,Air,0
 Node,1037,NODE 602,Air,1
 Node,1038,NODE 26,Air,2
 Node,1039,NODE 591,Air,2
 Node,1040,NODE 667,Air,2
 Node,1041,ALL_ST=OFFICE ENCLOSED <= 25 M2_FL=BUILDING STORY 1_SCH=A ERV DOAS OA NODE,Air,2
 Node,1042,DU_BT=SPACE FUNCTION_ST=DWELLING UNITS GENERAL_FL=BUILDING STORY 10_SCHG ERV DOAS OA NODE,Air,2
 Node,1043,DU_BT=SPACE FUNCTION_ST=DWELLING UNITS GENERAL_FL=BUILDING STORY 10_SCHG PTAC OA NODE,Air,1
 Node,1044,DU_BT=SPACE FUNCTION_ST=DWELLING UNITS GENERAL_FL=BUILDING STORY 10_SCHG 1 ERV DOAS OA NODE,Air,2
 Node,1045,DU_BT=SPACE FUNCTION_ST=DWELLING UNITS GENERAL_FL=BUILDING STORY 10_SCHG 1 PTAC OA NODE,Air,1
 Node,1046,DU_BT=SPACE FUNCTION_ST=DWELLING UNITS GENERAL_FL=BUILDING STORY 10_SCHG 2 ERV DOAS OA NODE,Air,2
 Node,1047,DU_BT=SPACE FUNCTION_ST=DWELLING UNITS GENERAL_FL=BUILDING STORY 10_SCHG 2 PTAC OA NODE,Air,1
 Node,1048,DU_BT=SPACE FUNCTION_ST=DWELLING UNITS GENERAL_FL=BUILDING STORY 10_SCHG 3 ERV DOAS OA NODE,Air,2
 Node,1049,DU_BT=SPACE FUNCTION_ST=DWELLING UNITS GENERAL_FL=BUILDING STORY 10_SCHG 3 PTAC OA NODE,Air,1
 Node,1050,DU_BT=SPACE FUNCTION_ST=DWELLING UNITS GENERAL_FL=BUILDING STORY 10_SCHG 4 ERV DOAS OA NODE,Air,2
 Node,1051,DU_BT=SPACE FUNCTION_ST=DWELLING UNITS GENERAL_FL=BUILDING STORY 10_SCHG 4 PTAC OA NODE,Air,1
 Node,1052,DU_BT=SPACE FUNCTION_ST=DWELLING UNITS GENERAL_FL=BUILDING STORY 10_SCHG 5 ERV DOAS OA NODE,Air,2
 Node,1053,DU_BT=SPACE FUNCTION_ST=DWELLING UNITS GENERAL_FL=BUILDING STORY 10_SCHG 5 PTAC OA NODE,Air,1
 Node,1054,DU_BT=SPACE FUNCTION_ST=DWELLING UNITS GENERAL_FL=BUILDING STORY 10_SCHG 6 ERV DOAS OA NODE,Air,2
 Node,1055,DU_BT=SPACE FUNCTION_ST=DWELLING UNITS GENERAL_FL=BUILDING STORY 10_SCHG 6 PTAC OA NODE,Air,1
 Node,1056,DU_BT=SPACE FUNCTION_ST=DWELLING UNITS GENERAL_FL=BUILDING STORY 10_SCHG 7 ERV DOAS OA NODE,Air,2
 Node,1057,DU_BT=SPACE FUNCTION_ST=DWELLING UNITS GENERAL_FL=BUILDING STORY 10_SCHG 7 PTAC OA NODE,Air,1
 Node,1058,DU_BT=SPACE FUNCTION_ST=DWELLING UNITS GENERAL_FL=BUILDING STORY 1_SCHG ERV DOAS OA NODE,Air,2
 Node,1059,DU_BT=SPACE FUNCTION_ST=DWELLING UNITS GENERAL_FL=BUILDING STORY 1_SCHG PTAC OA NODE,Air,1
 Node,1060,DU_BT=SPACE FUNCTION_ST=DWELLING UNITS GENERAL_FL=BUILDING STORY 1_SCHG 1 ERV DOAS OA NODE,Air,2
 Node,1061,DU_BT=SPACE FUNCTION_ST=DWELLING UNITS GENERAL_FL=BUILDING STORY 1_SCHG 1 PTAC OA NODE,Air,1
 Node,1062,DU_BT=SPACE FUNCTION_ST=DWELLING UNITS GENERAL_FL=BUILDING STORY 1_SCHG 2 ERV DOAS OA NODE,Air,2
 Node,1063,DU_BT=SPACE FUNCTION_ST=DWELLING UNITS GENERAL_FL=BUILDING STORY 1_SCHG 2 PTAC OA NODE,Air,1
 Node,1064,DU_BT=SPACE FUNCTION_ST=DWELLING UNITS GENERAL_FL=BUILDING STORY 1_SCHG 3 ERV DOAS OA NODE,Air,2
 Node,1065,DU_BT=SPACE FUNCTION_ST=DWELLING UNITS GENERAL_FL=BUILDING STORY 1_SCHG 3 PTAC OA NODE,Air,1
 Node,1066,DU_BT=SPACE FUNCTION_ST=DWELLING UNITS GENERAL_FL=BUILDING STORY 1_SCHG 4 ERV DOAS OA NODE,Air,2
 Node,1067,DU_BT=SPACE FUNCTION_ST=DWELLING UNITS GENERAL_FL=BUILDING STORY 1_SCHG 4 PTAC OA NODE,Air,1
 Node,1068,DU_BT=SPACE FUNCTION_ST=DWELLING UNITS GENERAL_FL=BUILDING STORY 1_SCHG 5 ERV DOAS OA NODE,Air,2
 Node,1069,DU_BT=SPACE FUNCTION_ST=DWELLING UNITS GENERAL_FL=BUILDING STORY 1_SCHG 5 PTAC OA NODE,Air,1
 Node,1070,DU_BT=SPACE FUNCTION_ST=DWELLING UNITS GENERAL_FL=BUILDING STORY 1_SCHG 6 ERV DOAS OA NODE,Air,2
 Node,1071,DU_BT=SPACE FUNCTION_ST=DWELLING UNITS GENERAL_FL=BUILDING STORY 1_SCHG 6 PTAC OA NODE,Air,1
 Node,1072,DU_BT=SPACE FUNCTION_ST=DWELLING UNITS GENERAL_FL=BUILDING STORY 2_SCHG ERV DOAS OA NODE,Air,2
 Node,1073,DU_BT=SPACE FUNCTION_ST=DWELLING UNITS GENERAL_FL=BUILDING STORY 2_SCHG PTAC OA NODE,Air,1
 Node,1074,DU_BT=SPACE FUNCTION_ST=DWELLING UNITS GENERAL_FL=BUILDING STORY 2_SCHG 1 ERV DOAS OA NODE,Air,2
 Node,1075,DU_BT=SPACE FUNCTION_ST=DWELLING UNITS GENERAL_FL=BUILDING STORY 2_SCHG 1 PTAC OA NODE,Air,1
 Node,1076,DU_BT=SPACE FUNCTION_ST=DWELLING UNITS GENERAL_FL=BUILDING STORY 2_SCHG 2 ERV DOAS OA NODE,Air,2
 Node,1077,DU_BT=SPACE FUNCTION_ST=DWELLING UNITS GENERAL_FL=BUILDING STORY 2_SCHG 2 PTAC OA NODE,Air,1
 Node,1078,DU_BT=SPACE FUNCTION_ST=DWELLING UNITS GENERAL_FL=BUILDING STORY 2_SCHG 3 ERV DOAS OA NODE,Air,2
 Node,1079,DU_BT=SPACE FUNCTION_ST=DWELLING UNITS GENERAL_FL=BUILDING STORY 2_SCHG 3 PTAC OA NODE,Air,1
 Node,1080,DU_BT=SPACE FUNCTION_ST=DWELLING UNITS GENERAL_FL=BUILDING STORY 2_SCHG 4 ERV DOAS OA NODE,Air,2
 Node,1081,DU_BT=SPACE FUNCTION_ST=DWELLING UNITS GENERAL_FL=BUILDING STORY 2_SCHG 4 PTAC OA NODE,Air,1
 Node,1082,DU_BT=SPACE FUNCTION_ST=DWELLING UNITS GENERAL_FL=BUILDING STORY 2_SCHG 5 ERV DOAS OA NODE,Air,2
 Node,1083,DU_BT=SPACE FUNCTION_ST=DWELLING UNITS GENERAL_FL=BUILDING STORY 2_SCHG 5 PTAC OA NODE,Air,1
 Node,1084,DU_BT=SPACE FUNCTION_ST=DWELLING UNITS GENERAL_FL=BUILDING STORY 2_SCHG 6 ERV DOAS OA NODE,Air,2
 Node,1085,DU_BT=SPACE FUNCTION_ST=DWELLING UNITS GENERAL_FL=BUILDING STORY 2_SCHG 6 PTAC OA NODE,Air,1
 Node,1086,DU_BT=SPACE FUNCTION_ST=DWELLING UNITS GENERAL_FL=BUILDING STORY 2_SCHG 7 ERV DOAS OA NODE,Air,2
 Node,1087,DU_BT=SPACE FUNCTION_ST=DWELLING UNITS GENERAL_FL=BUILDING STORY 2_SCHG 7 PTAC OA NODE,Air,1
 Node,1088,DU_BT=SPACE FUNCTION_ST=DWELLING UNITS GENERAL_FL=BUILDING STORY 3_SCHG ERV DOAS OA NODE,Air,2
 Node,1089,DU_BT=SPACE FUNCTION_ST=DWELLING UNITS GENERAL_FL=BUILDING STORY 3_SCHG PTAC OA NODE,Air,1
 Node,1090,DU_BT=SPACE FUNCTION_ST=DWELLING UNITS GENERAL_FL=BUILDING STORY 3_SCHG 1 ERV DOAS OA NODE,Air,2
 Node,1091,DU_BT=SPACE FUNCTION_ST=DWELLING UNITS GENERAL_FL=BUILDING STORY 3_SCHG 1 PTAC OA NODE,Air,1
 Node,1092,DU_BT=SPACE FUNCTION_ST=DWELLING UNITS GENERAL_FL=BUILDING STORY 3_SCHG 2 ERV DOAS OA NODE,Air,2
 Node,1093,DU_BT=SPACE FUNCTION_ST=DWELLING UNITS GENERAL_FL=BUILDING STORY 3_SCHG 2 PTAC OA NODE,Air,1
 Node,1094,DU_BT=SPACE FUNCTION_ST=DWELLING UNITS GENERAL_FL=BUILDING STORY 3_SCHG 3 ERV DOAS OA NODE,Air,2
 Node,1095,DU_BT=SPACE FUNCTION_ST=DWELLING UNITS GENERAL_FL=BUILDING STORY 3_SCHG 3 PTAC OA NODE,Air,1
 Node,1096,DU_BT=SPACE FUNCTION_ST=DWELLING UNITS GENERAL_FL=BUILDING STORY 3_SCHG 4 ERV DOAS OA NODE,Air,2
 Node,1097,DU_BT=SPACE FUNCTION_ST=DWELLING UNITS GENERAL_FL=BUILDING STORY 3_SCHG 4 PTAC OA NODE,Air,1
 Node,1098,DU_BT=SPACE FUNCTION_ST=DWELLING UNITS GENERAL_FL=BUILDING STORY 3_SCHG 5 ERV DOAS OA NODE,Air,2
 Node,1099,DU_BT=SPACE FUNCTION_ST=DWELLING UNITS GENERAL_FL=BUILDING STORY 3_SCHG 5 PTAC OA NODE,Air,1
 Node,1100,DU_BT=SPACE FUNCTION_ST=DWELLING UNITS GENERAL_FL=BUILDING STORY 3_SCHG 6 ERV DOAS OA NODE,Air,2
 Node,1101,DU_BT=SPACE FUNCTION_ST=DWELLING UNITS GENERAL_FL=BUILDING STORY 3_SCHG 6 PTAC OA NODE,Air,1
 Node,1102,DU_BT=SPACE FUNCTION_ST=DWELLING UNITS GENERAL_FL=BUILDING STORY 3_SCHG 7 ERV DOAS OA NODE,Air,2
 Node,1103,DU_BT=SPACE FUNCTION_ST=DWELLING UNITS GENERAL_FL=BUILDING STORY 3_SCHG 7 PTAC OA NODE,Air,1
 Node,1104,DU_BT=SPACE FUNCTION_ST=DWELLING UNITS GENERAL_FL=BUILDING STORY 4_SCHG ERV DOAS OA NODE,Air,2
 Node,1105,DU_BT=SPACE FUNCTION_ST=DWELLING UNITS GENERAL_FL=BUILDING STORY 4_SCHG PTAC OA NODE,Air,1
 Node,1106,DU_BT=SPACE FUNCTION_ST=DWELLING UNITS GENERAL_FL=BUILDING STORY 4_SCHG 1 ERV DOAS OA NODE,Air,2
 Node,1107,DU_BT=SPACE FUNCTION_ST=DWELLING UNITS GENERAL_FL=BUILDING STORY 4_SCHG 1 PTAC OA NODE,Air,1
 Node,1108,DU_BT=SPACE FUNCTION_ST=DWELLING UNITS GENERAL_FL=BUILDING STORY 4_SCHG 2 ERV DOAS OA NODE,Air,2
 Node,1109,DU_BT=SPACE FUNCTION_ST=DWELLING UNITS GENERAL_FL=BUILDING STORY 4_SCHG 2 PTAC OA NODE,Air,1
 Node,1110,DU_BT=SPACE FUNCTION_ST=DWELLING UNITS GENERAL_FL=BUILDING STORY 4_SCHG 3 ERV DOAS OA NODE,Air,2
 Node,1111,DU_BT=SPACE FUNCTION_ST=DWELLING UNITS GENERAL_FL=BUILDING STORY 4_SCHG 3 PTAC OA NODE,Air,1
 Node,1112,DU_BT=SPACE FUNCTION_ST=DWELLING UNITS GENERAL_FL=BUILDING STORY 4_SCHG 4 ERV DOAS OA NODE,Air,2
 Node,1113,DU_BT=SPACE FUNCTION_ST=DWELLING UNITS GENERAL_FL=BUILDING STORY 4_SCHG 4 PTAC OA NODE,Air,1
 Node,1114,DU_BT=SPACE FUNCTION_ST=DWELLING UNITS GENERAL_FL=BUILDING STORY 4_SCHG 5 ERV DOAS OA NODE,Air,2
 Node,1115,DU_BT=SPACE FUNCTION_ST=DWELLING UNITS GENERAL_FL=BUILDING STORY 4_SCHG 5 PTAC OA NODE,Air,1
 Node,1116,DU_BT=SPACE FUNCTION_ST=DWELLING UNITS GENERAL_FL=BUILDING STORY 4_SCHG 6 ERV DOAS OA NODE,Air,2
 Node,1117,DU_BT=SPACE FUNCTION_ST=DWELLING UNITS GENERAL_FL=BUILDING STORY 4_SCHG 6 PTAC OA NODE,Air,1
 Node,1118,DU_BT=SPACE FUNCTION_ST=DWELLING UNITS GENERAL_FL=BUILDING STORY 4_SCHG 7 ERV DOAS OA NODE,Air,2
 Node,1119,DU_BT=SPACE FUNCTION_ST=DWELLING UNITS GENERAL_FL=BUILDING STORY 4_SCHG 7 PTAC OA NODE,Air,1
 Node,1120,DU_BT=SPACE FUNCTION_ST=DWELLING UNITS GENERAL_FL=BUILDING STORY 5_SCHG ERV DOAS OA NODE,Air,2
 Node,1121,DU_BT=SPACE FUNCTION_ST=DWELLING UNITS GENERAL_FL=BUILDING STORY 5_SCHG PTAC OA NODE,Air,1
 Node,1122,DU_BT=SPACE FUNCTION_ST=DWELLING UNITS GENERAL_FL=BUILDING STORY 5_SCHG 1 ERV DOAS OA NODE,Air,2
 Node,1123,DU_BT=SPACE FUNCTION_ST=DWELLING UNITS GENERAL_FL=BUILDING STORY 5_SCHG 1 PTAC OA NODE,Air,1
 Node,1124,DU_BT=SPACE FUNCTION_ST=DWELLING UNITS GENERAL_FL=BUILDING STORY 5_SCHG 2 ERV DOAS OA NODE,Air,2
 Node,1125,DU_BT=SPACE FUNCTION_ST=DWELLING UNITS GENERAL_FL=BUILDING STORY 5_SCHG 2 PTAC OA NODE,Air,1
 Node,1126,DU_BT=SPACE FUNCTION_ST=DWELLING UNITS GENERAL_FL=BUILDING STORY 5_SCHG 3 ERV DOAS OA NODE,Air,2
 Node,1127,DU_BT=SPACE FUNCTION_ST=DWELLING UNITS GENERAL_FL=BUILDING STORY 5_SCHG 3 PTAC OA NODE,Air,1
 Node,1128,DU_BT=SPACE FUNCTION_ST=DWELLING UNITS GENERAL_FL=BUILDING STORY 5_SCHG 4 ERV DOAS OA NODE,Air,2
 Node,1129,DU_BT=SPACE FUNCTION_ST=DWELLING UNITS GENERAL_FL=BUILDING STORY 5_SCHG 4 PTAC OA NODE,Air,1
 Node,1130,DU_BT=SPACE FUNCTION_ST=DWELLING UNITS GENERAL_FL=BUILDING STORY 5_SCHG 5 ERV DOAS OA NODE,Air,2
 Node,1131,DU_BT=SPACE FUNCTION_ST=DWELLING UNITS GENERAL_FL=BUILDING STORY 5_SCHG 5 PTAC OA NODE,Air,1
 Node,1132,DU_BT=SPACE FUNCTION_ST=DWELLING UNITS GENERAL_FL=BUILDING STORY 5_SCHG 6 ERV DOAS OA NODE,Air,2
 Node,1133,DU_BT=SPACE FUNCTION_ST=DWELLING UNITS GENERAL_FL=BUILDING STORY 5_SCHG 6 PTAC OA NODE,Air,1
 Node,1134,DU_BT=SPACE FUNCTION_ST=DWELLING UNITS GENERAL_FL=BUILDING STORY 5_SCHG 7 ERV DOAS OA NODE,Air,2
 Node,1135,DU_BT=SPACE FUNCTION_ST=DWELLING UNITS GENERAL_FL=BUILDING STORY 5_SCHG 7 PTAC OA NODE,Air,1
 Node,1136,DU_BT=SPACE FUNCTION_ST=DWELLING UNITS GENERAL_FL=BUILDING STORY 6_SCHG ERV DOAS OA NODE,Air,2
 Node,1137,DU_BT=SPACE FUNCTION_ST=DWELLING UNITS GENERAL_FL=BUILDING STORY 6_SCHG PTAC OA NODE,Air,1
 Node,1138,DU_BT=SPACE FUNCTION_ST=DWELLING UNITS GENERAL_FL=BUILDING STORY 6_SCHG 1 ERV DOAS OA NODE,Air,2
 Node,1139,DU_BT=SPACE FUNCTION_ST=DWELLING UNITS GENERAL_FL=BUILDING STORY 6_SCHG 1 PTAC OA NODE,Air,1
 Node,1140,DU_BT=SPACE FUNCTION_ST=DWELLING UNITS GENERAL_FL=BUILDING STORY 6_SCHG 2 ERV DOAS OA NODE,Air,2
 Node,1141,DU_BT=SPACE FUNCTION_ST=DWELLING UNITS GENERAL_FL=BUILDING STORY 6_SCHG 2 PTAC OA NODE,Air,1
 Node,1142,DU_BT=SPACE FUNCTION_ST=DWELLING UNITS GENERAL_FL=BUILDING STORY 6_SCHG 3 ERV DOAS OA NODE,Air,2
 Node,1143,DU_BT=SPACE FUNCTION_ST=DWELLING UNITS GENERAL_FL=BUILDING STORY 6_SCHG 3 PTAC OA NODE,Air,1
 Node,1144,DU_BT=SPACE FUNCTION_ST=DWELLING UNITS GENERAL_FL=BUILDING STORY 6_SCHG 4 ERV DOAS OA NODE,Air,2
 Node,1145,DU_BT=SPACE FUNCTION_ST=DWELLING UNITS GENERAL_FL=BUILDING STORY 6_SCHG 4 PTAC OA NODE,Air,1
 Node,1146,DU_BT=SPACE FUNCTION_ST=DWELLING UNITS GENERAL_FL=BUILDING STORY 6_SCHG 5 ERV DOAS OA NODE,Air,2
 Node,1147,DU_BT=SPACE FUNCTION_ST=DWELLING UNITS GENERAL_FL=BUILDING STORY 6_SCHG 5 PTAC OA NODE,Air,1
 Node,1148,DU_BT=SPACE FUNCTION_ST=DWELLING UNITS GENERAL_FL=BUILDING STORY 6_SCHG 6 ERV DOAS OA NODE,Air,2
 Node,1149,DU_BT=SPACE FUNCTION_ST=DWELLING UNITS GENERAL_FL=BUILDING STORY 6_SCHG 6 PTAC OA NODE,Air,1
 Node,1150,DU_BT=SPACE FUNCTION_ST=DWELLING UNITS GENERAL_FL=BUILDING STORY 6_SCHG 7 ERV DOAS OA NODE,Air,2
 Node,1151,DU_BT=SPACE FUNCTION_ST=DWELLING UNITS GENERAL_FL=BUILDING STORY 6_SCHG 7 PTAC OA NODE,Air,1
 Node,1152,DU_BT=SPACE FUNCTION_ST=DWELLING UNITS GENERAL_FL=BUILDING STORY 7_SCHG ERV DOAS OA NODE,Air,2
 Node,1153,DU_BT=SPACE FUNCTION_ST=DWELLING UNITS GENERAL_FL=BUILDING STORY 7_SCHG PTAC OA NODE,Air,1
 Node,1154,DU_BT=SPACE FUNCTION_ST=DWELLING UNITS GENERAL_FL=BUILDING STORY 7_SCHG 1 ERV DOAS OA NODE,Air,2
 Node,1155,DU_BT=SPACE FUNCTION_ST=DWELLING UNITS GENERAL_FL=BUILDING STORY 7_SCHG 1 PTAC OA NODE,Air,1
 Node,1156,DU_BT=SPACE FUNCTION_ST=DWELLING UNITS GENERAL_FL=BUILDING STORY 7_SCHG 2 ERV DOAS OA NODE,Air,2
 Node,1157,DU_BT=SPACE FUNCTION_ST=DWELLING UNITS GENERAL_FL=BUILDING STORY 7_SCHG 2 PTAC OA NODE,Air,1
 Node,1158,DU_BT=SPACE FUNCTION_ST=DWELLING UNITS GENERAL_FL=BUILDING STORY 7_SCHG 3 ERV DOAS OA NODE,Air,2
 Node,1159,DU_BT=SPACE FUNCTION_ST=DWELLING UNITS GENERAL_FL=BUILDING STORY 7_SCHG 3 PTAC OA NODE,Air,1
 Node,1160,DU_BT=SPACE FUNCTION_ST=DWELLING UNITS GENERAL_FL=BUILDING STORY 7_SCHG 4 ERV DOAS OA NODE,Air,2
 Node,1161,DU_BT=SPACE FUNCTION_ST=DWELLING UNITS GENERAL_FL=BUILDING STORY 7_SCHG 4 PTAC OA NODE,Air,1
 Node,1162,DU_BT=SPACE FUNCTION_ST=DWELLING UNITS GENERAL_FL=BUILDING STORY 7_SCHG 5 ERV DOAS OA NODE,Air,2
 Node,1163,DU_BT=SPACE FUNCTION_ST=DWELLING UNITS GENERAL_FL=BUILDING STORY 7_SCHG 5 PTAC OA NODE,Air,1
 Node,1164,DU_BT=SPACE FUNCTION_ST=DWELLING UNITS GENERAL_FL=BUILDING STORY 7_SCHG 6 ERV DOAS OA NODE,Air,2
 Node,1165,DU_BT=SPACE FUNCTION_ST=DWELLING UNITS GENERAL_FL=BUILDING STORY 7_SCHG 6 PTAC OA NODE,Air,1
 Node,1166,DU_BT=SPACE FUNCTION_ST=DWELLING UNITS GENERAL_FL=BUILDING STORY 7_SCHG 7 ERV DOAS OA NODE,Air,2
 Node,1167,DU_BT=SPACE FUNCTION_ST=DWELLING UNITS GENERAL_FL=BUILDING STORY 7_SCHG 7 PTAC OA NODE,Air,1
 Node,1168,DU_BT=SPACE FUNCTION_ST=DWELLING UNITS GENERAL_FL=BUILDING STORY 8_SCHG ERV DOAS OA NODE,Air,2
 Node,1169,DU_BT=SPACE FUNCTION_ST=DWELLING UNITS GENERAL_FL=BUILDING STORY 8_SCHG PTAC OA NODE,Air,1
 Node,1170,DU_BT=SPACE FUNCTION_ST=DWELLING UNITS GENERAL_FL=BUILDING STORY 8_SCHG 1 ERV DOAS OA NODE,Air,2
 Node,1171,DU_BT=SPACE FUNCTION_ST=DWELLING UNITS GENERAL_FL=BUILDING STORY 8_SCHG 1 PTAC OA NODE,Air,1
 Node,1172,DU_BT=SPACE FUNCTION_ST=DWELLING UNITS GENERAL_FL=BUILDING STORY 8_SCHG 2 ERV DOAS OA NODE,Air,2
 Node,1173,DU_BT=SPACE FUNCTION_ST=DWELLING UNITS GENERAL_FL=BUILDING STORY 8_SCHG 2 PTAC OA NODE,Air,1
 Node,1174,DU_BT=SPACE FUNCTION_ST=DWELLING UNITS GENERAL_FL=BUILDING STORY 8_SCHG 3 ERV DOAS OA NODE,Air,2
 Node,1175,DU_BT=SPACE FUNCTION_ST=DWELLING UNITS GENERAL_FL=BUILDING STORY 8_SCHG 3 PTAC OA NODE,Air,1
 Node,1176,DU_BT=SPACE FUNCTION_ST=DWELLING UNITS GENERAL_FL=BUILDING STORY 8_SCHG 4 ERV DOAS OA NODE,Air,2
 Node,1177,DU_BT=SPACE FUNCTION_ST=DWELLING UNITS GENERAL_FL=BUILDING STORY 8_SCHG 4 PTAC OA NODE,Air,1
 Node,1178,DU_BT=SPACE FUNCTION_ST=DWELLING UNITS GENERAL_FL=BUILDING STORY 8_SCHG 5 ERV DOAS OA NODE,Air,2
 Node,1179,DU_BT=SPACE FUNCTION_ST=DWELLING UNITS GENERAL_FL=BUILDING STORY 8_SCHG 5 PTAC OA NODE,Air,1
 Node,1180,DU_BT=SPACE FUNCTION_ST=DWELLING UNITS GENERAL_FL=BUILDING STORY 8_SCHG 6 ERV DOAS OA NODE,Air,2
 Node,1181,DU_BT=SPACE FUNCTION_ST=DWELLING UNITS GENERAL_FL=BUILDING STORY 8_SCHG 6 PTAC OA NODE,Air,1
 Node,1182,DU_BT=SPACE FUNCTION_ST=DWELLING UNITS GENERAL_FL=BUILDING STORY 8_SCHG 7 ERV DOAS OA NODE,Air,2
 Node,1183,DU_BT=SPACE FUNCTION_ST=DWELLING UNITS GENERAL_FL=BUILDING STORY 8_SCHG 7 PTAC OA NODE,Air,1
 Node,1184,DU_BT=SPACE FUNCTION_ST=DWELLING UNITS GENERAL_FL=BUILDING STORY 9_SCHG ERV DOAS OA NODE,Air,2
 Node,1185,DU_BT=SPACE FUNCTION_ST=DWELLING UNITS GENERAL_FL=BUILDING STORY 9_SCHG PTAC OA NODE,Air,1
 Node,1186,DU_BT=SPACE FUNCTION_ST=DWELLING UNITS GENERAL_FL=BUILDING STORY 9_SCHG 1 ERV DOAS OA NODE,Air,2
 Node,1187,DU_BT=SPACE FUNCTION_ST=DWELLING UNITS GENERAL_FL=BUILDING STORY 9_SCHG 1 PTAC OA NODE,Air,1
 Node,1188,DU_BT=SPACE FUNCTION_ST=DWELLING UNITS GENERAL_FL=BUILDING STORY 9_SCHG 2 ERV DOAS OA NODE,Air,2
 Node,1189,DU_BT=SPACE FUNCTION_ST=DWELLING UNITS GENERAL_FL=BUILDING STORY 9_SCHG 2 PTAC OA NODE,Air,1
 Node,1190,DU_BT=SPACE FUNCTION_ST=DWELLING UNITS GENERAL_FL=BUILDING STORY 9_SCHG 3 ERV DOAS OA NODE,Air,2
 Node,1191,DU_BT=SPACE FUNCTION_ST=DWELLING UNITS GENERAL_FL=BUILDING STORY 9_SCHG 3 PTAC OA NODE,Air,1
 Node,1192,DU_BT=SPACE FUNCTION_ST=DWELLING UNITS GENERAL_FL=BUILDING STORY 9_SCHG 4 ERV DOAS OA NODE,Air,2
 Node,1193,DU_BT=SPACE FUNCTION_ST=DWELLING UNITS GENERAL_FL=BUILDING STORY 9_SCHG 4 PTAC OA NODE,Air,1
 Node,1194,DU_BT=SPACE FUNCTION_ST=DWELLING UNITS GENERAL_FL=BUILDING STORY 9_SCHG 5 ERV DOAS OA NODE,Air,2
 Node,1195,DU_BT=SPACE FUNCTION_ST=DWELLING UNITS GENERAL_FL=BUILDING STORY 9_SCHG 5 PTAC OA NODE,Air,1
 Node,1196,DU_BT=SPACE FUNCTION_ST=DWELLING UNITS GENERAL_FL=BUILDING STORY 9_SCHG 6 ERV DOAS OA NODE,Air,2
 Node,1197,DU_BT=SPACE FUNCTION_ST=DWELLING UNITS GENERAL_FL=BUILDING STORY 9_SCHG 6 PTAC OA NODE,Air,1
 Node,1198,DU_BT=SPACE FUNCTION_ST=DWELLING UNITS GENERAL_FL=BUILDING STORY 9_SCHG 7 ERV DOAS OA NODE,Air,2
 Node,1199,DU_BT=SPACE FUNCTION_ST=DWELLING UNITS GENERAL_FL=BUILDING STORY 9_SCHG 7 PTAC OA NODE,Air,1
 Node,1200,WILD_ST=CORRIDOR/TRANSITION AREA OTHER-SCH-G_FL=BUILDING STORY 10_SCH=G ERV DOAS OA NODE,Air,2
 Node,1201,WILD_ST=CORRIDOR/TRANSITION AREA OTHER-SCH-G_FL=BUILDING STORY 1_SCH=G ERV DOAS OA NODE,Air,2
 Node,1202,WILD_ST=CORRIDOR/TRANSITION AREA OTHER-SCH-G_FL=BUILDING STORY 2_SCH=G ERV DOAS OA NODE,Air,2
 Node,1203,WILD_ST=CORRIDOR/TRANSITION AREA OTHER-SCH-G_FL=BUILDING STORY 3_SCH=G ERV DOAS OA NODE,Air,2
 Node,1204,WILD_ST=CORRIDOR/TRANSITION AREA OTHER-SCH-G_FL=BUILDING STORY 4_SCH=G ERV DOAS OA NODE,Air,2
 Node,1205,WILD_ST=CORRIDOR/TRANSITION AREA OTHER-SCH-G_FL=BUILDING STORY 5_SCH=G ERV DOAS OA NODE,Air,2
 Node,1206,WILD_ST=CORRIDOR/TRANSITION AREA OTHER-SCH-G_FL=BUILDING STORY 6_SCH=G ERV DOAS OA NODE,Air,2
 Node,1207,WILD_ST=CORRIDOR/TRANSITION AREA OTHER-SCH-G_FL=BUILDING STORY 7_SCH=G ERV DOAS OA NODE,Air,2
 Node,1208,WILD_ST=CORRIDOR/TRANSITION AREA OTHER-SCH-G_FL=BUILDING STORY 8_SCH=G ERV DOAS OA NODE,Air,2
 Node,1209,WILD_ST=CORRIDOR/TRANSITION AREA OTHER-SCH-G_FL=BUILDING STORY 9_SCH=G ERV DOAS OA NODE,Air,2
 Node,1210,NODE 30,Air,3
 Node,1211,NODE 593,Air,3
 Node,1212,NODE 670,Air,3
 Node,1213,MODEL OUTDOOR AIR NODE,Air,0
 Node,1214,NODE 855,Air,2
 Node,1215,NODE 857,Air,2
 Node,1216,NODE 859,Air,2
 Node,1217,NODE 872,Air,1
 Node,1218,NODE 873,Air,1
 Node,1219,NODE 874,Air,1
 Node,1220,NODE 875,Air,1
 Node,1221,NODE 876,Air,1
 Node,1222,NODE 877,Air,1
 Node,1223,NODE 878,Air,1
 Node,1224,NODE 879,Air,1
 Node,1225,NODE 880,Air,1
 Node,1226,NODE 881,Air,1
 Node,1227,NODE 882,Air,1
 Node,1228,NODE 883,Air,1
 Node,1229,NODE 884,Air,1
 Node,1230,NODE 885,Air,1
 Node,1231,NODE 886,Air,1
 Node,1232,NODE 887,Air,1
 Node,1233,NODE 888,Air,1
 Node,1234,NODE 889,Air,1
 Node,1235,NODE 890,Air,1
 Node,1236,NODE 891,Air,1
 Node,1237,NODE 892,Air,1
 Node,1238,NODE 893,Air,1
 Node,1239,NODE 894,Air,1
 Node,1240,NODE 895,Air,1
 Node,1241,NODE 896,Air,1
 Node,1242,NODE 897,Air,1
 Node,1243,NODE 898,Air,1
 Node,1244,NODE 899,Air,1
 Node,1245,NODE 900,Air,1
 Node,1246,NODE 901,Air,1
 Node,1247,NODE 902,Air,1
 Node,1248,NODE 903,Air,1
 Node,1249,NODE 904,Air,1
 Node,1250,NODE 905,Air,1
 Node,1251,NODE 906,Air,1
 Node,1252,NODE 907,Air,1
 Node,1253,NODE 908,Air,1
 Node,1254,NODE 909,Air,1
 Node,1255,NODE 910,Air,1
 Node,1256,NODE 911,Air,1
 Node,1257,NODE 912,Air,1
 Node,1258,NODE 913,Air,1
 Node,1259,NODE 914,Air,1
 Node,1260,NODE 915,Air,1
 Node,1261,NODE 916,Air,1
 Node,1262,NODE 917,Air,1
 Node,1263,NODE 918,Air,1
 Node,1264,NODE 919,Air,1
 Node,1265,NODE 920,Air,1
 Node,1266,NODE 921,Air,1
 Node,1267,NODE 922,Air,1
 Node,1268,NODE 923,Air,1
 Node,1269,NODE 924,Air,1
 Node,1270,NODE 925,Air,1
 Node,1271,NODE 926,Air,1
 Node,1272,NODE 927,Air,1
 Node,1273,NODE 928,Air,1
 Node,1274,NODE 929,Air,1
 Node,1275,NODE 930,Air,1
 Node,1276,NODE 931,Air,1
 Node,1277,NODE 932,Air,1
 Node,1278,NODE 933,Air,1
 Node,1279,NODE 934,Air,1
 Node,1280,NODE 935,Air,1
 Node,1281,NODE 936,Air,1
 Node,1282,NODE 937,Air,1
 Node,1283,NODE 938,Air,1
 Node,1284,NODE 939,Air,1
 Node,1285,NODE 940,Air,1
 Node,1286,NODE 941,Air,1
 Node,1287,NODE 942,Air,1
 Node,1288,NODE 943,Air,1
 Node,1289,NODE 944,Air,1
 Node,1290,NODE 945,Air,1
 Node,1291,NODE 946,Air,1
 Node,1292,NODE 947,Air,1
 Node,1293,NODE 948,Air,1
 Node,1294,NODE 949,Air,1
 Node,1295,NODE 950,Air,1
 Node,1296,NODE 861,Air,1
 Node,1297,NODE 862,Air,1
 Node,1298,NODE 863,Air,1
 Node,1299,NODE 864,Air,1
 Node,1300,NODE 865,Air,1
 Node,1301,NODE 866,Air,1
 Node,1302,NODE 867,Air,1
 Node,1303,NODE 868,Air,1
 Node,1304,NODE 869,Air,1
 Node,1305,NODE 870,Air,1
 Node,1306,NODE 677,Air,1
 Node,1307,ALL_ST=OFFICE ENCLOSED <= 25 M2_FL=BUILDING STORY 1_SCH=A ERV DOAS SUPPLY FAN INLET NODE,Air,1
 Node,1308,ALL_ST=OFFICE ENCLOSED <= 25 M2_FL=BUILDING STORY 1_SCH=A ERV DOAS EXHAUST FAN INLET NODE,Air,1
 Node,1309,DU_BT=SPACE FUNCTION_ST=DWELLING UNITS GENERAL_FL=BUILDING STORY 10_SCHG ERV DOAS SUPPLY FAN INLET NODE,Air,1
 Node,1310,DU_BT=SPACE FUNCTION_ST=DWELLING UNITS GENERAL_FL=BUILDING STORY 10_SCHG ERV DOAS EXHAUST FAN INLET NODE,Air,1
 Node,1311,DU_BT=SPACE FUNCTION_ST=DWELLING UNITS GENERAL_FL=BUILDING STORY 10_SCHG 1 ERV DOAS SUPPLY FAN INLET NODE,Air,1
 Node,1312,DU_BT=SPACE FUNCTION_ST=DWELLING UNITS GENERAL_FL=BUILDING STORY 10_SCHG 1 ERV DOAS EXHAUST FAN INLET NODE,Air,1
 Node,1313,DU_BT=SPACE FUNCTION_ST=DWELLING UNITS GENERAL_FL=BUILDING STORY 10_SCHG 2 ERV DOAS SUPPLY FAN INLET NODE,Air,1
 Node,1314,DU_BT=SPACE FUNCTION_ST=DWELLING UNITS GENERAL_FL=BUILDING STORY 10_SCHG 2 ERV DOAS EXHAUST FAN INLET NODE,Air,1
 Node,1315,DU_BT=SPACE FUNCTION_ST=DWELLING UNITS GENERAL_FL=BUILDING STORY 10_SCHG 3 ERV DOAS SUPPLY FAN INLET NODE,Air,1
 Node,1316,DU_BT=SPACE FUNCTION_ST=DWELLING UNITS GENERAL_FL=BUILDING STORY 10_SCHG 3 ERV DOAS EXHAUST FAN INLET NODE,Air,1
 Node,1317,DU_BT=SPACE FUNCTION_ST=DWELLING UNITS GENERAL_FL=BUILDING STORY 10_SCHG 4 ERV DOAS SUPPLY FAN INLET NODE,Air,1
 Node,1318,DU_BT=SPACE FUNCTION_ST=DWELLING UNITS GENERAL_FL=BUILDING STORY 10_SCHG 4 ERV DOAS EXHAUST FAN INLET NODE,Air,1
 Node,1319,DU_BT=SPACE FUNCTION_ST=DWELLING UNITS GENERAL_FL=BUILDING STORY 10_SCHG 5 ERV DOAS SUPPLY FAN INLET NODE,Air,1
 Node,1320,DU_BT=SPACE FUNCTION_ST=DWELLING UNITS GENERAL_FL=BUILDING STORY 10_SCHG 5 ERV DOAS EXHAUST FAN INLET NODE,Air,1
 Node,1321,DU_BT=SPACE FUNCTION_ST=DWELLING UNITS GENERAL_FL=BUILDING STORY 10_SCHG 6 ERV DOAS SUPPLY FAN INLET NODE,Air,1
 Node,1322,DU_BT=SPACE FUNCTION_ST=DWELLING UNITS GENERAL_FL=BUILDING STORY 10_SCHG 6 ERV DOAS EXHAUST FAN INLET NODE,Air,1
 Node,1323,DU_BT=SPACE FUNCTION_ST=DWELLING UNITS GENERAL_FL=BUILDING STORY 10_SCHG 7 ERV DOAS SUPPLY FAN INLET NODE,Air,1
 Node,1324,DU_BT=SPACE FUNCTION_ST=DWELLING UNITS GENERAL_FL=BUILDING STORY 10_SCHG 7 ERV DOAS EXHAUST FAN INLET NODE,Air,1
 Node,1325,DU_BT=SPACE FUNCTION_ST=DWELLING UNITS GENERAL_FL=BUILDING STORY 1_SCHG ERV DOAS SUPPLY FAN INLET NODE,Air,1
 Node,1326,DU_BT=SPACE FUNCTION_ST=DWELLING UNITS GENERAL_FL=BUILDING STORY 1_SCHG ERV DOAS EXHAUST FAN INLET NODE,Air,1
 Node,1327,DU_BT=SPACE FUNCTION_ST=DWELLING UNITS GENERAL_FL=BUILDING STORY 1_SCHG 1 ERV DOAS SUPPLY FAN INLET NODE,Air,1
 Node,1328,DU_BT=SPACE FUNCTION_ST=DWELLING UNITS GENERAL_FL=BUILDING STORY 1_SCHG 1 ERV DOAS EXHAUST FAN INLET NODE,Air,1
 Node,1329,DU_BT=SPACE FUNCTION_ST=DWELLING UNITS GENERAL_FL=BUILDING STORY 1_SCHG 2 ERV DOAS SUPPLY FAN INLET NODE,Air,1
 Node,1330,DU_BT=SPACE FUNCTION_ST=DWELLING UNITS GENERAL_FL=BUILDING STORY 1_SCHG 2 ERV DOAS EXHAUST FAN INLET NODE,Air,1
 Node,1331,DU_BT=SPACE FUNCTION_ST=DWELLING UNITS GENERAL_FL=BUILDING STORY 1_SCHG 3 ERV DOAS SUPPLY FAN INLET NODE,Air,1
 Node,1332,DU_BT=SPACE FUNCTION_ST=DWELLING UNITS GENERAL_FL=BUILDING STORY 1_SCHG 3 ERV DOAS EXHAUST FAN INLET NODE,Air,1
 Node,1333,DU_BT=SPACE FUNCTION_ST=DWELLING UNITS GENERAL_FL=BUILDING STORY 1_SCHG 4 ERV DOAS SUPPLY FAN INLET NODE,Air,1
 Node,1334,DU_BT=SPACE FUNCTION_ST=DWELLING UNITS GENERAL_FL=BUILDING STORY 1_SCHG 4 ERV DOAS EXHAUST FAN INLET NODE,Air,1
 Node,1335,DU_BT=SPACE FUNCTION_ST=DWELLING UNITS GENERAL_FL=BUILDING STORY 1_SCHG 5 ERV DOAS SUPPLY FAN INLET NODE,Air,1
 Node,1336,DU_BT=SPACE FUNCTION_ST=DWELLING UNITS GENERAL_FL=BUILDING STORY 1_SCHG 5 ERV DOAS EXHAUST FAN INLET NODE,Air,1
 Node,1337,DU_BT=SPACE FUNCTION_ST=DWELLING UNITS GENERAL_FL=BUILDING STORY 1_SCHG 6 ERV DOAS SUPPLY FAN INLET NODE,Air,1
 Node,1338,DU_BT=SPACE FUNCTION_ST=DWELLING UNITS GENERAL_FL=BUILDING STORY 1_SCHG 6 ERV DOAS EXHAUST FAN INLET NODE,Air,1
 Node,1339,DU_BT=SPACE FUNCTION_ST=DWELLING UNITS GENERAL_FL=BUILDING STORY 2_SCHG ERV DOAS SUPPLY FAN INLET NODE,Air,1
 Node,1340,DU_BT=SPACE FUNCTION_ST=DWELLING UNITS GENERAL_FL=BUILDING STORY 2_SCHG ERV DOAS EXHAUST FAN INLET NODE,Air,1
 Node,1341,DU_BT=SPACE FUNCTION_ST=DWELLING UNITS GENERAL_FL=BUILDING STORY 2_SCHG 1 ERV DOAS SUPPLY FAN INLET NODE,Air,1
 Node,1342,DU_BT=SPACE FUNCTION_ST=DWELLING UNITS GENERAL_FL=BUILDING STORY 2_SCHG 1 ERV DOAS EXHAUST FAN INLET NODE,Air,1
 Node,1343,DU_BT=SPACE FUNCTION_ST=DWELLING UNITS GENERAL_FL=BUILDING STORY 2_SCHG 2 ERV DOAS SUPPLY FAN INLET NODE,Air,1
 Node,1344,DU_BT=SPACE FUNCTION_ST=DWELLING UNITS GENERAL_FL=BUILDING STORY 2_SCHG 2 ERV DOAS EXHAUST FAN INLET NODE,Air,1
 Node,1345,DU_BT=SPACE FUNCTION_ST=DWELLING UNITS GENERAL_FL=BUILDING STORY 2_SCHG 3 ERV DOAS SUPPLY FAN INLET NODE,Air,1
 Node,1346,DU_BT=SPACE FUNCTION_ST=DWELLING UNITS GENERAL_FL=BUILDING STORY 2_SCHG 3 ERV DOAS EXHAUST FAN INLET NODE,Air,1
 Node,1347,DU_BT=SPACE FUNCTION_ST=DWELLING UNITS GENERAL_FL=BUILDING STORY 2_SCHG 4 ERV DOAS SUPPLY FAN INLET NODE,Air,1
 Node,1348,DU_BT=SPACE FUNCTION_ST=DWELLING UNITS GENERAL_FL=BUILDING STORY 2_SCHG 4 ERV DOAS EXHAUST FAN INLET NODE,Air,1
 Node,1349,DU_BT=SPACE FUNCTION_ST=DWELLING UNITS GENERAL_FL=BUILDING STORY 2_SCHG 5 ERV DOAS SUPPLY FAN INLET NODE,Air,1
 Node,1350,DU_BT=SPACE FUNCTION_ST=DWELLING UNITS GENERAL_FL=BUILDING STORY 2_SCHG 5 ERV DOAS EXHAUST FAN INLET NODE,Air,1
 Node,1351,DU_BT=SPACE FUNCTION_ST=DWELLING UNITS GENERAL_FL=BUILDING STORY 2_SCHG 6 ERV DOAS SUPPLY FAN INLET NODE,Air,1
 Node,1352,DU_BT=SPACE FUNCTION_ST=DWELLING UNITS GENERAL_FL=BUILDING STORY 2_SCHG 6 ERV DOAS EXHAUST FAN INLET NODE,Air,1
 Node,1353,DU_BT=SPACE FUNCTION_ST=DWELLING UNITS GENERAL_FL=BUILDING STORY 2_SCHG 7 ERV DOAS SUPPLY FAN INLET NODE,Air,1
 Node,1354,DU_BT=SPACE FUNCTION_ST=DWELLING UNITS GENERAL_FL=BUILDING STORY 2_SCHG 7 ERV DOAS EXHAUST FAN INLET NODE,Air,1
 Node,1355,DU_BT=SPACE FUNCTION_ST=DWELLING UNITS GENERAL_FL=BUILDING STORY 3_SCHG ERV DOAS SUPPLY FAN INLET NODE,Air,1
 Node,1356,DU_BT=SPACE FUNCTION_ST=DWELLING UNITS GENERAL_FL=BUILDING STORY 3_SCHG ERV DOAS EXHAUST FAN INLET NODE,Air,1
 Node,1357,DU_BT=SPACE FUNCTION_ST=DWELLING UNITS GENERAL_FL=BUILDING STORY 3_SCHG 1 ERV DOAS SUPPLY FAN INLET NODE,Air,1
 Node,1358,DU_BT=SPACE FUNCTION_ST=DWELLING UNITS GENERAL_FL=BUILDING STORY 3_SCHG 1 ERV DOAS EXHAUST FAN INLET NODE,Air,1
 Node,1359,DU_BT=SPACE FUNCTION_ST=DWELLING UNITS GENERAL_FL=BUILDING STORY 3_SCHG 2 ERV DOAS SUPPLY FAN INLET NODE,Air,1
 Node,1360,DU_BT=SPACE FUNCTION_ST=DWELLING UNITS GENERAL_FL=BUILDING STORY 3_SCHG 2 ERV DOAS EXHAUST FAN INLET NODE,Air,1
 Node,1361,DU_BT=SPACE FUNCTION_ST=DWELLING UNITS GENERAL_FL=BUILDING STORY 3_SCHG 3 ERV DOAS SUPPLY FAN INLET NODE,Air,1
 Node,1362,DU_BT=SPACE FUNCTION_ST=DWELLING UNITS GENERAL_FL=BUILDING STORY 3_SCHG 3 ERV DOAS EXHAUST FAN INLET NODE,Air,1
 Node,1363,DU_BT=SPACE FUNCTION_ST=DWELLING UNITS GENERAL_FL=BUILDING STORY 3_SCHG 4 ERV DOAS SUPPLY FAN INLET NODE,Air,1
 Node,1364,DU_BT=SPACE FUNCTION_ST=DWELLING UNITS GENERAL_FL=BUILDING STORY 3_SCHG 4 ERV DOAS EXHAUST FAN INLET NODE,Air,1
 Node,1365,DU_BT=SPACE FUNCTION_ST=DWELLING UNITS GENERAL_FL=BUILDING STORY 3_SCHG 5 ERV DOAS SUPPLY FAN INLET NODE,Air,1
 Node,1366,DU_BT=SPACE FUNCTION_ST=DWELLING UNITS GENERAL_FL=BUILDING STORY 3_SCHG 5 ERV DOAS EXHAUST FAN INLET NODE,Air,1
 Node,1367,DU_BT=SPACE FUNCTION_ST=DWELLING UNITS GENERAL_FL=BUILDING STORY 3_SCHG 6 ERV DOAS SUPPLY FAN INLET NODE,Air,1
 Node,1368,DU_BT=SPACE FUNCTION_ST=DWELLING UNITS GENERAL_FL=BUILDING STORY 3_SCHG 6 ERV DOAS EXHAUST FAN INLET NODE,Air,1
 Node,1369,DU_BT=SPACE FUNCTION_ST=DWELLING UNITS GENERAL_FL=BUILDING STORY 3_SCHG 7 ERV DOAS SUPPLY FAN INLET NODE,Air,1
 Node,1370,DU_BT=SPACE FUNCTION_ST=DWELLING UNITS GENERAL_FL=BUILDING STORY 3_SCHG 7 ERV DOAS EXHAUST FAN INLET NODE,Air,1
 Node,1371,DU_BT=SPACE FUNCTION_ST=DWELLING UNITS GENERAL_FL=BUILDING STORY 4_SCHG ERV DOAS SUPPLY FAN INLET NODE,Air,1
 Node,1372,DU_BT=SPACE FUNCTION_ST=DWELLING UNITS GENERAL_FL=BUILDING STORY 4_SCHG ERV DOAS EXHAUST FAN INLET NODE,Air,1
 Node,1373,DU_BT=SPACE FUNCTION_ST=DWELLING UNITS GENERAL_FL=BUILDING STORY 4_SCHG 1 ERV DOAS SUPPLY FAN INLET NODE,Air,1
 Node,1374,DU_BT=SPACE FUNCTION_ST=DWELLING UNITS GENERAL_FL=BUILDING STORY 4_SCHG 1 ERV DOAS EXHAUST FAN INLET NODE,Air,1
 Node,1375,DU_BT=SPACE FUNCTION_ST=DWELLING UNITS GENERAL_FL=BUILDING STORY 4_SCHG 2 ERV DOAS SUPPLY FAN INLET NODE,Air,1
 Node,1376,DU_BT=SPACE FUNCTION_ST=DWELLING UNITS GENERAL_FL=BUILDING STORY 4_SCHG 2 ERV DOAS EXHAUST FAN INLET NODE,Air,1
 Node,1377,DU_BT=SPACE FUNCTION_ST=DWELLING UNITS GENERAL_FL=BUILDING STORY 4_SCHG 3 ERV DOAS SUPPLY FAN INLET NODE,Air,1
 Node,1378,DU_BT=SPACE FUNCTION_ST=DWELLING UNITS GENERAL_FL=BUILDING STORY 4_SCHG 3 ERV DOAS EXHAUST FAN INLET NODE,Air,1
 Node,1379,DU_BT=SPACE FUNCTION_ST=DWELLING UNITS GENERAL_FL=BUILDING STORY 4_SCHG 4 ERV DOAS SUPPLY FAN INLET NODE,Air,1
 Node,1380,DU_BT=SPACE FUNCTION_ST=DWELLING UNITS GENERAL_FL=BUILDING STORY 4_SCHG 4 ERV DOAS EXHAUST FAN INLET NODE,Air,1
 Node,1381,DU_BT=SPACE FUNCTION_ST=DWELLING UNITS GENERAL_FL=BUILDING STORY 4_SCHG 5 ERV DOAS SUPPLY FAN INLET NODE,Air,1
 Node,1382,DU_BT=SPACE FUNCTION_ST=DWELLING UNITS GENERAL_FL=BUILDING STORY 4_SCHG 5 ERV DOAS EXHAUST FAN INLET NODE,Air,1
 Node,1383,DU_BT=SPACE FUNCTION_ST=DWELLING UNITS GENERAL_FL=BUILDING STORY 4_SCHG 6 ERV DOAS SUPPLY FAN INLET NODE,Air,1
 Node,1384,DU_BT=SPACE FUNCTION_ST=DWELLING UNITS GENERAL_FL=BUILDING STORY 4_SCHG 6 ERV DOAS EXHAUST FAN INLET NODE,Air,1
 Node,1385,DU_BT=SPACE FUNCTION_ST=DWELLING UNITS GENERAL_FL=BUILDING STORY 4_SCHG 7 ERV DOAS SUPPLY FAN INLET NODE,Air,1
 Node,1386,DU_BT=SPACE FUNCTION_ST=DWELLING UNITS GENERAL_FL=BUILDING STORY 4_SCHG 7 ERV DOAS EXHAUST FAN INLET NODE,Air,1
 Node,1387,DU_BT=SPACE FUNCTION_ST=DWELLING UNITS GENERAL_FL=BUILDING STORY 5_SCHG ERV DOAS SUPPLY FAN INLET NODE,Air,1
 Node,1388,DU_BT=SPACE FUNCTION_ST=DWELLING UNITS GENERAL_FL=BUILDING STORY 5_SCHG ERV DOAS EXHAUST FAN INLET NODE,Air,1
 Node,1389,DU_BT=SPACE FUNCTION_ST=DWELLING UNITS GENERAL_FL=BUILDING STORY 5_SCHG 1 ERV DOAS SUPPLY FAN INLET NODE,Air,1
 Node,1390,DU_BT=SPACE FUNCTION_ST=DWELLING UNITS GENERAL_FL=BUILDING STORY 5_SCHG 1 ERV DOAS EXHAUST FAN INLET NODE,Air,1
 Node,1391,DU_BT=SPACE FUNCTION_ST=DWELLING UNITS GENERAL_FL=BUILDING STORY 5_SCHG 2 ERV DOAS SUPPLY FAN INLET NODE,Air,1
 Node,1392,DU_BT=SPACE FUNCTION_ST=DWELLING UNITS GENERAL_FL=BUILDING STORY 5_SCHG 2 ERV DOAS EXHAUST FAN INLET NODE,Air,1
 Node,1393,DU_BT=SPACE FUNCTION_ST=DWELLING UNITS GENERAL_FL=BUILDING STORY 5_SCHG 3 ERV DOAS SUPPLY FAN INLET NODE,Air,1
 Node,1394,DU_BT=SPACE FUNCTION_ST=DWELLING UNITS GENERAL_FL=BUILDING STORY 5_SCHG 3 ERV DOAS EXHAUST FAN INLET NODE,Air,1
 Node,1395,DU_BT=SPACE FUNCTION_ST=DWELLING UNITS GENERAL_FL=BUILDING STORY 5_SCHG 4 ERV DOAS SUPPLY FAN INLET NODE,Air,1
 Node,1396,DU_BT=SPACE FUNCTION_ST=DWELLING UNITS GENERAL_FL=BUILDING STORY 5_SCHG 4 ERV DOAS EXHAUST FAN INLET NODE,Air,1
 Node,1397,DU_BT=SPACE FUNCTION_ST=DWELLING UNITS GENERAL_FL=BUILDING STORY 5_SCHG 5 ERV DOAS SUPPLY FAN INLET NODE,Air,1
 Node,1398,DU_BT=SPACE FUNCTION_ST=DWELLING UNITS GENERAL_FL=BUILDING STORY 5_SCHG 5 ERV DOAS EXHAUST FAN INLET NODE,Air,1
 Node,1399,DU_BT=SPACE FUNCTION_ST=DWELLING UNITS GENERAL_FL=BUILDING STORY 5_SCHG 6 ERV DOAS SUPPLY FAN INLET NODE,Air,1
 Node,1400,DU_BT=SPACE FUNCTION_ST=DWELLING UNITS GENERAL_FL=BUILDING STORY 5_SCHG 6 ERV DOAS EXHAUST FAN INLET NODE,Air,1
 Node,1401,DU_BT=SPACE FUNCTION_ST=DWELLING UNITS GENERAL_FL=BUILDING STORY 5_SCHG 7 ERV DOAS SUPPLY FAN INLET NODE,Air,1
 Node,1402,DU_BT=SPACE FUNCTION_ST=DWELLING UNITS GENERAL_FL=BUILDING STORY 5_SCHG 7 ERV DOAS EXHAUST FAN INLET NODE,Air,1
 Node,1403,DU_BT=SPACE FUNCTION_ST=DWELLING UNITS GENERAL_FL=BUILDING STORY 6_SCHG ERV DOAS SUPPLY FAN INLET NODE,Air,1
 Node,1404,DU_BT=SPACE FUNCTION_ST=DWELLING UNITS GENERAL_FL=BUILDING STORY 6_SCHG ERV DOAS EXHAUST FAN INLET NODE,Air,1
 Node,1405,DU_BT=SPACE FUNCTION_ST=DWELLING UNITS GENERAL_FL=BUILDING STORY 6_SCHG 1 ERV DOAS SUPPLY FAN INLET NODE,Air,1
 Node,1406,DU_BT=SPACE FUNCTION_ST=DWELLING UNITS GENERAL_FL=BUILDING STORY 6_SCHG 1 ERV DOAS EXHAUST FAN INLET NODE,Air,1
 Node,1407,DU_BT=SPACE FUNCTION_ST=DWELLING UNITS GENERAL_FL=BUILDING STORY 6_SCHG 2 ERV DOAS SUPPLY FAN INLET NODE,Air,1
 Node,1408,DU_BT=SPACE FUNCTION_ST=DWELLING UNITS GENERAL_FL=BUILDING STORY 6_SCHG 2 ERV DOAS EXHAUST FAN INLET NODE,Air,1
 Node,1409,DU_BT=SPACE FUNCTION_ST=DWELLING UNITS GENERAL_FL=BUILDING STORY 6_SCHG 3 ERV DOAS SUPPLY FAN INLET NODE,Air,1
 Node,1410,DU_BT=SPACE FUNCTION_ST=DWELLING UNITS GENERAL_FL=BUILDING STORY 6_SCHG 3 ERV DOAS EXHAUST FAN INLET NODE,Air,1
 Node,1411,DU_BT=SPACE FUNCTION_ST=DWELLING UNITS GENERAL_FL=BUILDING STORY 6_SCHG 4 ERV DOAS SUPPLY FAN INLET NODE,Air,1
 Node,1412,DU_BT=SPACE FUNCTION_ST=DWELLING UNITS GENERAL_FL=BUILDING STORY 6_SCHG 4 ERV DOAS EXHAUST FAN INLET NODE,Air,1
 Node,1413,DU_BT=SPACE FUNCTION_ST=DWELLING UNITS GENERAL_FL=BUILDING STORY 6_SCHG 5 ERV DOAS SUPPLY FAN INLET NODE,Air,1
 Node,1414,DU_BT=SPACE FUNCTION_ST=DWELLING UNITS GENERAL_FL=BUILDING STORY 6_SCHG 5 ERV DOAS EXHAUST FAN INLET NODE,Air,1
 Node,1415,DU_BT=SPACE FUNCTION_ST=DWELLING UNITS GENERAL_FL=BUILDING STORY 6_SCHG 6 ERV DOAS SUPPLY FAN INLET NODE,Air,1
 Node,1416,DU_BT=SPACE FUNCTION_ST=DWELLING UNITS GENERAL_FL=BUILDING STORY 6_SCHG 6 ERV DOAS EXHAUST FAN INLET NODE,Air,1
 Node,1417,DU_BT=SPACE FUNCTION_ST=DWELLING UNITS GENERAL_FL=BUILDING STORY 6_SCHG 7 ERV DOAS SUPPLY FAN INLET NODE,Air,1
 Node,1418,DU_BT=SPACE FUNCTION_ST=DWELLING UNITS GENERAL_FL=BUILDING STORY 6_SCHG 7 ERV DOAS EXHAUST FAN INLET NODE,Air,1
 Node,1419,DU_BT=SPACE FUNCTION_ST=DWELLING UNITS GENERAL_FL=BUILDING STORY 7_SCHG ERV DOAS SUPPLY FAN INLET NODE,Air,1
 Node,1420,DU_BT=SPACE FUNCTION_ST=DWELLING UNITS GENERAL_FL=BUILDING STORY 7_SCHG ERV DOAS EXHAUST FAN INLET NODE,Air,1
 Node,1421,DU_BT=SPACE FUNCTION_ST=DWELLING UNITS GENERAL_FL=BUILDING STORY 7_SCHG 1 ERV DOAS SUPPLY FAN INLET NODE,Air,1
 Node,1422,DU_BT=SPACE FUNCTION_ST=DWELLING UNITS GENERAL_FL=BUILDING STORY 7_SCHG 1 ERV DOAS EXHAUST FAN INLET NODE,Air,1
 Node,1423,DU_BT=SPACE FUNCTION_ST=DWELLING UNITS GENERAL_FL=BUILDING STORY 7_SCHG 2 ERV DOAS SUPPLY FAN INLET NODE,Air,1
 Node,1424,DU_BT=SPACE FUNCTION_ST=DWELLING UNITS GENERAL_FL=BUILDING STORY 7_SCHG 2 ERV DOAS EXHAUST FAN INLET NODE,Air,1
 Node,1425,DU_BT=SPACE FUNCTION_ST=DWELLING UNITS GENERAL_FL=BUILDING STORY 7_SCHG 3 ERV DOAS SUPPLY FAN INLET NODE,Air,1
 Node,1426,DU_BT=SPACE FUNCTION_ST=DWELLING UNITS GENERAL_FL=BUILDING STORY 7_SCHG 3 ERV DOAS EXHAUST FAN INLET NODE,Air,1
 Node,1427,DU_BT=SPACE FUNCTION_ST=DWELLING UNITS GENERAL_FL=BUILDING STORY 7_SCHG 4 ERV DOAS SUPPLY FAN INLET NODE,Air,1
 Node,1428,DU_BT=SPACE FUNCTION_ST=DWELLING UNITS GENERAL_FL=BUILDING STORY 7_SCHG 4 ERV DOAS EXHAUST FAN INLET NODE,Air,1
 Node,1429,DU_BT=SPACE FUNCTION_ST=DWELLING UNITS GENERAL_FL=BUILDING STORY 7_SCHG 5 ERV DOAS SUPPLY FAN INLET NODE,Air,1
 Node,1430,DU_BT=SPACE FUNCTION_ST=DWELLING UNITS GENERAL_FL=BUILDING STORY 7_SCHG 5 ERV DOAS EXHAUST FAN INLET NODE,Air,1
 Node,1431,DU_BT=SPACE FUNCTION_ST=DWELLING UNITS GENERAL_FL=BUILDING STORY 7_SCHG 6 ERV DOAS SUPPLY FAN INLET NODE,Air,1
 Node,1432,DU_BT=SPACE FUNCTION_ST=DWELLING UNITS GENERAL_FL=BUILDING STORY 7_SCHG 6 ERV DOAS EXHAUST FAN INLET NODE,Air,1
 Node,1433,DU_BT=SPACE FUNCTION_ST=DWELLING UNITS GENERAL_FL=BUILDING STORY 7_SCHG 7 ERV DOAS SUPPLY FAN INLET NODE,Air,1
 Node,1434,DU_BT=SPACE FUNCTION_ST=DWELLING UNITS GENERAL_FL=BUILDING STORY 7_SCHG 7 ERV DOAS EXHAUST FAN INLET NODE,Air,1
 Node,1435,DU_BT=SPACE FUNCTION_ST=DWELLING UNITS GENERAL_FL=BUILDING STORY 8_SCHG ERV DOAS SUPPLY FAN INLET NODE,Air,1
 Node,1436,DU_BT=SPACE FUNCTION_ST=DWELLING UNITS GENERAL_FL=BUILDING STORY 8_SCHG ERV DOAS EXHAUST FAN INLET NODE,Air,1
 Node,1437,DU_BT=SPACE FUNCTION_ST=DWELLING UNITS GENERAL_FL=BUILDING STORY 8_SCHG 1 ERV DOAS SUPPLY FAN INLET NODE,Air,1
 Node,1438,DU_BT=SPACE FUNCTION_ST=DWELLING UNITS GENERAL_FL=BUILDING STORY 8_SCHG 1 ERV DOAS EXHAUST FAN INLET NODE,Air,1
 Node,1439,DU_BT=SPACE FUNCTION_ST=DWELLING UNITS GENERAL_FL=BUILDING STORY 8_SCHG 2 ERV DOAS SUPPLY FAN INLET NODE,Air,1
 Node,1440,DU_BT=SPACE FUNCTION_ST=DWELLING UNITS GENERAL_FL=BUILDING STORY 8_SCHG 2 ERV DOAS EXHAUST FAN INLET NODE,Air,1
 Node,1441,DU_BT=SPACE FUNCTION_ST=DWELLING UNITS GENERAL_FL=BUILDING STORY 8_SCHG 3 ERV DOAS SUPPLY FAN INLET NODE,Air,1
 Node,1442,DU_BT=SPACE FUNCTION_ST=DWELLING UNITS GENERAL_FL=BUILDING STORY 8_SCHG 3 ERV DOAS EXHAUST FAN INLET NODE,Air,1
 Node,1443,DU_BT=SPACE FUNCTION_ST=DWELLING UNITS GENERAL_FL=BUILDING STORY 8_SCHG 4 ERV DOAS SUPPLY FAN INLET NODE,Air,1
 Node,1444,DU_BT=SPACE FUNCTION_ST=DWELLING UNITS GENERAL_FL=BUILDING STORY 8_SCHG 4 ERV DOAS EXHAUST FAN INLET NODE,Air,1
 Node,1445,DU_BT=SPACE FUNCTION_ST=DWELLING UNITS GENERAL_FL=BUILDING STORY 8_SCHG 5 ERV DOAS SUPPLY FAN INLET NODE,Air,1
 Node,1446,DU_BT=SPACE FUNCTION_ST=DWELLING UNITS GENERAL_FL=BUILDING STORY 8_SCHG 5 ERV DOAS EXHAUST FAN INLET NODE,Air,1
 Node,1447,DU_BT=SPACE FUNCTION_ST=DWELLING UNITS GENERAL_FL=BUILDING STORY 8_SCHG 6 ERV DOAS SUPPLY FAN INLET NODE,Air,1
 Node,1448,DU_BT=SPACE FUNCTION_ST=DWELLING UNITS GENERAL_FL=BUILDING STORY 8_SCHG 6 ERV DOAS EXHAUST FAN INLET NODE,Air,1
 Node,1449,DU_BT=SPACE FUNCTION_ST=DWELLING UNITS GENERAL_FL=BUILDING STORY 8_SCHG 7 ERV DOAS SUPPLY FAN INLET NODE,Air,1
 Node,1450,DU_BT=SPACE FUNCTION_ST=DWELLING UNITS GENERAL_FL=BUILDING STORY 8_SCHG 7 ERV DOAS EXHAUST FAN INLET NODE,Air,1
 Node,1451,DU_BT=SPACE FUNCTION_ST=DWELLING UNITS GENERAL_FL=BUILDING STORY 9_SCHG ERV DOAS SUPPLY FAN INLET NODE,Air,1
 Node,1452,DU_BT=SPACE FUNCTION_ST=DWELLING UNITS GENERAL_FL=BUILDING STORY 9_SCHG ERV DOAS EXHAUST FAN INLET NODE,Air,1
 Node,1453,DU_BT=SPACE FUNCTION_ST=DWELLING UNITS GENERAL_FL=BUILDING STORY 9_SCHG 1 ERV DOAS SUPPLY FAN INLET NODE,Air,1
 Node,1454,DU_BT=SPACE FUNCTION_ST=DWELLING UNITS GENERAL_FL=BUILDING STORY 9_SCHG 1 ERV DOAS EXHAUST FAN INLET NODE,Air,1
 Node,1455,DU_BT=SPACE FUNCTION_ST=DWELLING UNITS GENERAL_FL=BUILDING STORY 9_SCHG 2 ERV DOAS SUPPLY FAN INLET NODE,Air,1
 Node,1456,DU_BT=SPACE FUNCTION_ST=DWELLING UNITS GENERAL_FL=BUILDING STORY 9_SCHG 2 ERV DOAS EXHAUST FAN INLET NODE,Air,1
 Node,1457,DU_BT=SPACE FUNCTION_ST=DWELLING UNITS GENERAL_FL=BUILDING STORY 9_SCHG 3 ERV DOAS SUPPLY FAN INLET NODE,Air,1
 Node,1458,DU_BT=SPACE FUNCTION_ST=DWELLING UNITS GENERAL_FL=BUILDING STORY 9_SCHG 3 ERV DOAS EXHAUST FAN INLET NODE,Air,1
 Node,1459,DU_BT=SPACE FUNCTION_ST=DWELLING UNITS GENERAL_FL=BUILDING STORY 9_SCHG 4 ERV DOAS SUPPLY FAN INLET NODE,Air,1
 Node,1460,DU_BT=SPACE FUNCTION_ST=DWELLING UNITS GENERAL_FL=BUILDING STORY 9_SCHG 4 ERV DOAS EXHAUST FAN INLET NODE,Air,1
 Node,1461,DU_BT=SPACE FUNCTION_ST=DWELLING UNITS GENERAL_FL=BUILDING STORY 9_SCHG 5 ERV DOAS SUPPLY FAN INLET NODE,Air,1
 Node,1462,DU_BT=SPACE FUNCTION_ST=DWELLING UNITS GENERAL_FL=BUILDING STORY 9_SCHG 5 ERV DOAS EXHAUST FAN INLET NODE,Air,1
 Node,1463,DU_BT=SPACE FUNCTION_ST=DWELLING UNITS GENERAL_FL=BUILDING STORY 9_SCHG 6 ERV DOAS SUPPLY FAN INLET NODE,Air,1
 Node,1464,DU_BT=SPACE FUNCTION_ST=DWELLING UNITS GENERAL_FL=BUILDING STORY 9_SCHG 6 ERV DOAS EXHAUST FAN INLET NODE,Air,1
 Node,1465,DU_BT=SPACE FUNCTION_ST=DWELLING UNITS GENERAL_FL=BUILDING STORY 9_SCHG 7 ERV DOAS SUPPLY FAN INLET NODE,Air,1
 Node,1466,DU_BT=SPACE FUNCTION_ST=DWELLING UNITS GENERAL_FL=BUILDING STORY 9_SCHG 7 ERV DOAS EXHAUST FAN INLET NODE,Air,1
 Node,1467,WILD_ST=CORRIDOR/TRANSITION AREA OTHER-SCH-G_FL=BUILDING STORY 10_SCH=G ERV DOAS SUPPLY FAN INLET NODE,Air,1
 Node,1468,WILD_ST=CORRIDOR/TRANSITION AREA OTHER-SCH-G_FL=BUILDING STORY 10_SCH=G ERV DOAS EXHAUST FAN INLET NODE,Air,1
 Node,1469,WILD_ST=CORRIDOR/TRANSITION AREA OTHER-SCH-G_FL=BUILDING STORY 1_SCH=G ERV DOAS SUPPLY FAN INLET NODE,Air,1
 Node,1470,WILD_ST=CORRIDOR/TRANSITION AREA OTHER-SCH-G_FL=BUILDING STORY 1_SCH=G ERV DOAS EXHAUST FAN INLET NODE,Air,1
 Node,1471,WILD_ST=CORRIDOR/TRANSITION AREA OTHER-SCH-G_FL=BUILDING STORY 2_SCH=G ERV DOAS SUPPLY FAN INLET NODE,Air,1
 Node,1472,WILD_ST=CORRIDOR/TRANSITION AREA OTHER-SCH-G_FL=BUILDING STORY 2_SCH=G ERV DOAS EXHAUST FAN INLET NODE,Air,1
 Node,1473,WILD_ST=CORRIDOR/TRANSITION AREA OTHER-SCH-G_FL=BUILDING STORY 3_SCH=G ERV DOAS SUPPLY FAN INLET NODE,Air,1
 Node,1474,WILD_ST=CORRIDOR/TRANSITION AREA OTHER-SCH-G_FL=BUILDING STORY 3_SCH=G ERV DOAS EXHAUST FAN INLET NODE,Air,1
 Node,1475,WILD_ST=CORRIDOR/TRANSITION AREA OTHER-SCH-G_FL=BUILDING STORY 4_SCH=G ERV DOAS SUPPLY FAN INLET NODE,Air,1
 Node,1476,WILD_ST=CORRIDOR/TRANSITION AREA OTHER-SCH-G_FL=BUILDING STORY 4_SCH=G ERV DOAS EXHAUST FAN INLET NODE,Air,1
 Node,1477,WILD_ST=CORRIDOR/TRANSITION AREA OTHER-SCH-G_FL=BUILDING STORY 5_SCH=G ERV DOAS SUPPLY FAN INLET NODE,Air,1
 Node,1478,WILD_ST=CORRIDOR/TRANSITION AREA OTHER-SCH-G_FL=BUILDING STORY 5_SCH=G ERV DOAS EXHAUST FAN INLET NODE,Air,1
 Node,1479,WILD_ST=CORRIDOR/TRANSITION AREA OTHER-SCH-G_FL=BUILDING STORY 6_SCH=G ERV DOAS SUPPLY FAN INLET NODE,Air,1
 Node,1480,WILD_ST=CORRIDOR/TRANSITION AREA OTHER-SCH-G_FL=BUILDING STORY 6_SCH=G ERV DOAS EXHAUST FAN INLET NODE,Air,1
 Node,1481,WILD_ST=CORRIDOR/TRANSITION AREA OTHER-SCH-G_FL=BUILDING STORY 7_SCH=G ERV DOAS SUPPLY FAN INLET NODE,Air,1
 Node,1482,WILD_ST=CORRIDOR/TRANSITION AREA OTHER-SCH-G_FL=BUILDING STORY 7_SCH=G ERV DOAS EXHAUST FAN INLET NODE,Air,1
 Node,1483,WILD_ST=CORRIDOR/TRANSITION AREA OTHER-SCH-G_FL=BUILDING STORY 8_SCH=G ERV DOAS SUPPLY FAN INLET NODE,Air,1
 Node,1484,WILD_ST=CORRIDOR/TRANSITION AREA OTHER-SCH-G_FL=BUILDING STORY 8_SCH=G ERV DOAS EXHAUST FAN INLET NODE,Air,1
 Node,1485,WILD_ST=CORRIDOR/TRANSITION AREA OTHER-SCH-G_FL=BUILDING STORY 9_SCH=G ERV DOAS SUPPLY FAN INLET NODE,Air,1
 Node,1486,WILD_ST=CORRIDOR/TRANSITION AREA OTHER-SCH-G_FL=BUILDING STORY 9_SCH=G ERV DOAS EXHAUST FAN INLET NODE,Air,1
 Node,1487,NODE 856,Air,2
 Node,1488,NODE 32,Air,0
 Node,1489,NODE 858,Air,2
 Node,1490,NODE 594,Air,0
 Node,1491,NODE 860,Air,2
 Node,1492,NODE 671,Air,0
 Node,1493,DU_BT=SPACE FUNCTION_ST=DWELLING UNITS GENERAL_FL=BUILDING STORY 10_SCHG PTAC HEATING COIL OUTLET NODE,Air,1
 Node,1494,DU_BT=SPACE FUNCTION_ST=DWELLING UNITS GENERAL_FL=BUILDING STORY 10_SCHG 1 PTAC HEATING COIL OUTLET NODE,Air,1
 Node,1495,DU_BT=SPACE FUNCTION_ST=DWELLING UNITS GENERAL_FL=BUILDING STORY 10_SCHG 2 PTAC HEATING COIL OUTLET NODE,Air,1
 Node,1496,DU_BT=SPACE FUNCTION_ST=DWELLING UNITS GENERAL_FL=BUILDING STORY 10_SCHG 3 PTAC HEATING COIL OUTLET NODE,Air,1
 Node,1497,DU_BT=SPACE FUNCTION_ST=DWELLING UNITS GENERAL_FL=BUILDING STORY 10_SCHG 4 PTAC HEATING COIL OUTLET NODE,Air,1
 Node,1498,DU_BT=SPACE FUNCTION_ST=DWELLING UNITS GENERAL_FL=BUILDING STORY 10_SCHG 5 PTAC HEATING COIL OUTLET NODE,Air,1
 Node,1499,DU_BT=SPACE FUNCTION_ST=DWELLING UNITS GENERAL_FL=BUILDING STORY 10_SCHG 6 PTAC HEATING COIL OUTLET NODE,Air,1
 Node,1500,DU_BT=SPACE FUNCTION_ST=DWELLING UNITS GENERAL_FL=BUILDING STORY 10_SCHG 7 PTAC HEATING COIL OUTLET NODE,Air,1
 Node,1501,DU_BT=SPACE FUNCTION_ST=DWELLING UNITS GENERAL_FL=BUILDING STORY 1_SCHG PTAC HEATING COIL OUTLET NODE,Air,1
 Node,1502,DU_BT=SPACE FUNCTION_ST=DWELLING UNITS GENERAL_FL=BUILDING STORY 1_SCHG 1 PTAC HEATING COIL OUTLET NODE,Air,1
 Node,1503,DU_BT=SPACE FUNCTION_ST=DWELLING UNITS GENERAL_FL=BUILDING STORY 1_SCHG 2 PTAC HEATING COIL OUTLET NODE,Air,1
 Node,1504,DU_BT=SPACE FUNCTION_ST=DWELLING UNITS GENERAL_FL=BUILDING STORY 1_SCHG 3 PTAC HEATING COIL OUTLET NODE,Air,1
 Node,1505,DU_BT=SPACE FUNCTION_ST=DWELLING UNITS GENERAL_FL=BUILDING STORY 1_SCHG 4 PTAC HEATING COIL OUTLET NODE,Air,1
 Node,1506,DU_BT=SPACE FUNCTION_ST=DWELLING UNITS GENERAL_FL=BUILDING STORY 1_SCHG 5 PTAC HEATING COIL OUTLET NODE,Air,1
 Node,1507,DU_BT=SPACE FUNCTION_ST=DWELLING UNITS GENERAL_FL=BUILDING STORY 1_SCHG 6 PTAC HEATING COIL OUTLET NODE,Air,1
 Node,1508,DU_BT=SPACE FUNCTION_ST=DWELLING UNITS GENERAL_FL=BUILDING STORY 2_SCHG PTAC HEATING COIL OUTLET NODE,Air,1
 Node,1509,DU_BT=SPACE FUNCTION_ST=DWELLING UNITS GENERAL_FL=BUILDING STORY 2_SCHG 1 PTAC HEATING COIL OUTLET NODE,Air,1
 Node,1510,DU_BT=SPACE FUNCTION_ST=DWELLING UNITS GENERAL_FL=BUILDING STORY 2_SCHG 2 PTAC HEATING COIL OUTLET NODE,Air,1
 Node,1511,DU_BT=SPACE FUNCTION_ST=DWELLING UNITS GENERAL_FL=BUILDING STORY 2_SCHG 3 PTAC HEATING COIL OUTLET NODE,Air,1
 Node,1512,DU_BT=SPACE FUNCTION_ST=DWELLING UNITS GENERAL_FL=BUILDING STORY 2_SCHG 4 PTAC HEATING COIL OUTLET NODE,Air,1
 Node,1513,DU_BT=SPACE FUNCTION_ST=DWELLING UNITS GENERAL_FL=BUILDING STORY 2_SCHG 5 PTAC HEATING COIL OUTLET NODE,Air,1
 Node,1514,DU_BT=SPACE FUNCTION_ST=DWELLING UNITS GENERAL_FL=BUILDING STORY 2_SCHG 6 PTAC HEATING COIL OUTLET NODE,Air,1
 Node,1515,DU_BT=SPACE FUNCTION_ST=DWELLING UNITS GENERAL_FL=BUILDING STORY 2_SCHG 7 PTAC HEATING COIL OUTLET NODE,Air,1
 Node,1516,DU_BT=SPACE FUNCTION_ST=DWELLING UNITS GENERAL_FL=BUILDING STORY 3_SCHG PTAC HEATING COIL OUTLET NODE,Air,1
 Node,1517,DU_BT=SPACE FUNCTION_ST=DWELLING UNITS GENERAL_FL=BUILDING STORY 3_SCHG 1 PTAC HEATING COIL OUTLET NODE,Air,1
 Node,1518,DU_BT=SPACE FUNCTION_ST=DWELLING UNITS GENERAL_FL=BUILDING STORY 3_SCHG 2 PTAC HEATING COIL OUTLET NODE,Air,1
 Node,1519,DU_BT=SPACE FUNCTION_ST=DWELLING UNITS GENERAL_FL=BUILDING STORY 3_SCHG 3 PTAC HEATING COIL OUTLET NODE,Air,1
 Node,1520,DU_BT=SPACE FUNCTION_ST=DWELLING UNITS GENERAL_FL=BUILDING STORY 3_SCHG 4 PTAC HEATING COIL OUTLET NODE,Air,1
 Node,1521,DU_BT=SPACE FUNCTION_ST=DWELLING UNITS GENERAL_FL=BUILDING STORY 3_SCHG 5 PTAC HEATING COIL OUTLET NODE,Air,1
 Node,1522,DU_BT=SPACE FUNCTION_ST=DWELLING UNITS GENERAL_FL=BUILDING STORY 3_SCHG 6 PTAC HEATING COIL OUTLET NODE,Air,1
 Node,1523,DU_BT=SPACE FUNCTION_ST=DWELLING UNITS GENERAL_FL=BUILDING STORY 3_SCHG 7 PTAC HEATING COIL OUTLET NODE,Air,1
 Node,1524,DU_BT=SPACE FUNCTION_ST=DWELLING UNITS GENERAL_FL=BUILDING STORY 4_SCHG PTAC HEATING COIL OUTLET NODE,Air,1
 Node,1525,DU_BT=SPACE FUNCTION_ST=DWELLING UNITS GENERAL_FL=BUILDING STORY 4_SCHG 1 PTAC HEATING COIL OUTLET NODE,Air,1
 Node,1526,DU_BT=SPACE FUNCTION_ST=DWELLING UNITS GENERAL_FL=BUILDING STORY 4_SCHG 2 PTAC HEATING COIL OUTLET NODE,Air,1
 Node,1527,DU_BT=SPACE FUNCTION_ST=DWELLING UNITS GENERAL_FL=BUILDING STORY 4_SCHG 3 PTAC HEATING COIL OUTLET NODE,Air,1
 Node,1528,DU_BT=SPACE FUNCTION_ST=DWELLING UNITS GENERAL_FL=BUILDING STORY 4_SCHG 4 PTAC HEATING COIL OUTLET NODE,Air,1
 Node,1529,DU_BT=SPACE FUNCTION_ST=DWELLING UNITS GENERAL_FL=BUILDING STORY 4_SCHG 5 PTAC HEATING COIL OUTLET NODE,Air,1
 Node,1530,DU_BT=SPACE FUNCTION_ST=DWELLING UNITS GENERAL_FL=BUILDING STORY 4_SCHG 6 PTAC HEATING COIL OUTLET NODE,Air,1
 Node,1531,DU_BT=SPACE FUNCTION_ST=DWELLING UNITS GENERAL_FL=BUILDING STORY 4_SCHG 7 PTAC HEATING COIL OUTLET NODE,Air,1
 Node,1532,DU_BT=SPACE FUNCTION_ST=DWELLING UNITS GENERAL_FL=BUILDING STORY 5_SCHG PTAC HEATING COIL OUTLET NODE,Air,1
 Node,1533,DU_BT=SPACE FUNCTION_ST=DWELLING UNITS GENERAL_FL=BUILDING STORY 5_SCHG 1 PTAC HEATING COIL OUTLET NODE,Air,1
 Node,1534,DU_BT=SPACE FUNCTION_ST=DWELLING UNITS GENERAL_FL=BUILDING STORY 5_SCHG 2 PTAC HEATING COIL OUTLET NODE,Air,1
 Node,1535,DU_BT=SPACE FUNCTION_ST=DWELLING UNITS GENERAL_FL=BUILDING STORY 5_SCHG 3 PTAC HEATING COIL OUTLET NODE,Air,1
 Node,1536,DU_BT=SPACE FUNCTION_ST=DWELLING UNITS GENERAL_FL=BUILDING STORY 5_SCHG 4 PTAC HEATING COIL OUTLET NODE,Air,1
 Node,1537,DU_BT=SPACE FUNCTION_ST=DWELLING UNITS GENERAL_FL=BUILDING STORY 5_SCHG 5 PTAC HEATING COIL OUTLET NODE,Air,1
 Node,1538,DU_BT=SPACE FUNCTION_ST=DWELLING UNITS GENERAL_FL=BUILDING STORY 5_SCHG 6 PTAC HEATING COIL OUTLET NODE,Air,1
 Node,1539,DU_BT=SPACE FUNCTION_ST=DWELLING UNITS GENERAL_FL=BUILDING STORY 5_SCHG 7 PTAC HEATING COIL OUTLET NODE,Air,1
 Node,1540,DU_BT=SPACE FUNCTION_ST=DWELLING UNITS GENERAL_FL=BUILDING STORY 6_SCHG PTAC HEATING COIL OUTLET NODE,Air,1
 Node,1541,DU_BT=SPACE FUNCTION_ST=DWELLING UNITS GENERAL_FL=BUILDING STORY 6_SCHG 1 PTAC HEATING COIL OUTLET NODE,Air,1
 Node,1542,DU_BT=SPACE FUNCTION_ST=DWELLING UNITS GENERAL_FL=BUILDING STORY 6_SCHG 2 PTAC HEATING COIL OUTLET NODE,Air,1
 Node,1543,DU_BT=SPACE FUNCTION_ST=DWELLING UNITS GENERAL_FL=BUILDING STORY 6_SCHG 3 PTAC HEATING COIL OUTLET NODE,Air,1
 Node,1544,DU_BT=SPACE FUNCTION_ST=DWELLING UNITS GENERAL_FL=BUILDING STORY 6_SCHG 4 PTAC HEATING COIL OUTLET NODE,Air,1
 Node,1545,DU_BT=SPACE FUNCTION_ST=DWELLING UNITS GENERAL_FL=BUILDING STORY 6_SCHG 5 PTAC HEATING COIL OUTLET NODE,Air,1
 Node,1546,DU_BT=SPACE FUNCTION_ST=DWELLING UNITS GENERAL_FL=BUILDING STORY 6_SCHG 6 PTAC HEATING COIL OUTLET NODE,Air,1
 Node,1547,DU_BT=SPACE FUNCTION_ST=DWELLING UNITS GENERAL_FL=BUILDING STORY 6_SCHG 7 PTAC HEATING COIL OUTLET NODE,Air,1
 Node,1548,DU_BT=SPACE FUNCTION_ST=DWELLING UNITS GENERAL_FL=BUILDING STORY 7_SCHG PTAC HEATING COIL OUTLET NODE,Air,1
 Node,1549,DU_BT=SPACE FUNCTION_ST=DWELLING UNITS GENERAL_FL=BUILDING STORY 7_SCHG 1 PTAC HEATING COIL OUTLET NODE,Air,1
 Node,1550,DU_BT=SPACE FUNCTION_ST=DWELLING UNITS GENERAL_FL=BUILDING STORY 7_SCHG 2 PTAC HEATING COIL OUTLET NODE,Air,1
 Node,1551,DU_BT=SPACE FUNCTION_ST=DWELLING UNITS GENERAL_FL=BUILDING STORY 7_SCHG 3 PTAC HEATING COIL OUTLET NODE,Air,1
 Node,1552,DU_BT=SPACE FUNCTION_ST=DWELLING UNITS GENERAL_FL=BUILDING STORY 7_SCHG 4 PTAC HEATING COIL OUTLET NODE,Air,1
 Node,1553,DU_BT=SPACE FUNCTION_ST=DWELLING UNITS GENERAL_FL=BUILDING STORY 7_SCHG 5 PTAC HEATING COIL OUTLET NODE,Air,1
 Node,1554,DU_BT=SPACE FUNCTION_ST=DWELLING UNITS GENERAL_FL=BUILDING STORY 7_SCHG 6 PTAC HEATING COIL OUTLET NODE,Air,1
 Node,1555,DU_BT=SPACE FUNCTION_ST=DWELLING UNITS GENERAL_FL=BUILDING STORY 7_SCHG 7 PTAC HEATING COIL OUTLET NODE,Air,1
 Node,1556,DU_BT=SPACE FUNCTION_ST=DWELLING UNITS GENERAL_FL=BUILDING STORY 8_SCHG PTAC HEATING COIL OUTLET NODE,Air,1
 Node,1557,DU_BT=SPACE FUNCTION_ST=DWELLING UNITS GENERAL_FL=BUILDING STORY 8_SCHG 1 PTAC HEATING COIL OUTLET NODE,Air,1
 Node,1558,DU_BT=SPACE FUNCTION_ST=DWELLING UNITS GENERAL_FL=BUILDING STORY 8_SCHG 2 PTAC HEATING COIL OUTLET NODE,Air,1
 Node,1559,DU_BT=SPACE FUNCTION_ST=DWELLING UNITS GENERAL_FL=BUILDING STORY 8_SCHG 3 PTAC HEATING COIL OUTLET NODE,Air,1
 Node,1560,DU_BT=SPACE FUNCTION_ST=DWELLING UNITS GENERAL_FL=BUILDING STORY 8_SCHG 4 PTAC HEATING COIL OUTLET NODE,Air,1
 Node,1561,DU_BT=SPACE FUNCTION_ST=DWELLING UNITS GENERAL_FL=BUILDING STORY 8_SCHG 5 PTAC HEATING COIL OUTLET NODE,Air,1
 Node,1562,DU_BT=SPACE FUNCTION_ST=DWELLING UNITS GENERAL_FL=BUILDING STORY 8_SCHG 6 PTAC HEATING COIL OUTLET NODE,Air,1
 Node,1563,DU_BT=SPACE FUNCTION_ST=DWELLING UNITS GENERAL_FL=BUILDING STORY 8_SCHG 7 PTAC HEATING COIL OUTLET NODE,Air,1
 Node,1564,DU_BT=SPACE FUNCTION_ST=DWELLING UNITS GENERAL_FL=BUILDING STORY 9_SCHG PTAC HEATING COIL OUTLET NODE,Air,1
 Node,1565,DU_BT=SPACE FUNCTION_ST=DWELLING UNITS GENERAL_FL=BUILDING STORY 9_SCHG 1 PTAC HEATING COIL OUTLET NODE,Air,1
 Node,1566,DU_BT=SPACE FUNCTION_ST=DWELLING UNITS GENERAL_FL=BUILDING STORY 9_SCHG 2 PTAC HEATING COIL OUTLET NODE,Air,1
 Node,1567,DU_BT=SPACE FUNCTION_ST=DWELLING UNITS GENERAL_FL=BUILDING STORY 9_SCHG 3 PTAC HEATING COIL OUTLET NODE,Air,1
 Node,1568,DU_BT=SPACE FUNCTION_ST=DWELLING UNITS GENERAL_FL=BUILDING STORY 9_SCHG 4 PTAC HEATING COIL OUTLET NODE,Air,1
 Node,1569,DU_BT=SPACE FUNCTION_ST=DWELLING UNITS GENERAL_FL=BUILDING STORY 9_SCHG 5 PTAC HEATING COIL OUTLET NODE,Air,1
 Node,1570,DU_BT=SPACE FUNCTION_ST=DWELLING UNITS GENERAL_FL=BUILDING STORY 9_SCHG 6 PTAC HEATING COIL OUTLET NODE,Air,1
 Node,1571,DU_BT=SPACE FUNCTION_ST=DWELLING UNITS GENERAL_FL=BUILDING STORY 9_SCHG 7 PTAC HEATING COIL OUTLET NODE,Air,1
[...]
 Non-Parent Node Connection,DU_BT=SPACE FUNCTION_ST=DWELLING UNITS GENERAL_FL=BUILDING STORY 8_SCHG 1 PTAC COOLING COIL OUTLET NODE,COIL:COOLING:DX:SINGLESPEED,COIL COOLING DX SINGLE SPEED 13 9KBTU/HR 10.5EER,Outlet,1
 Non-Parent Node Connection,DU_BT=SPACE FUNCTION_ST=DWELLING UNITS GENERAL_FL=BUILDING STORY 8_SCHG 2 PTAC MIXED AIR NODE,COIL:COOLING:DX:SINGLESPEED,COIL COOLING DX SINGLE SPEED 21 8KBTU/HR 10.8EER,Inlet,1
 Non-Parent Node Connection,DU_BT=SPACE FUNCTION_ST=DWELLING UNITS GENERAL_FL=BUILDING STORY 8_SCHG 2 PTAC COOLING COIL OUTLET NODE,COIL:COOLING:DX:SINGLESPEED,COIL COOLING DX SINGLE SPEED 21 8KBTU/HR 10.8EER,Outlet,1
 Non-Parent Node Connection,DU_BT=SPACE FUNCTION_ST=DWELLING UNITS GENERAL_FL=BUILDING STORY 8_SCHG 3 PTAC MIXED AIR NODE,COIL:COOLING:DX:SINGLESPEED,COIL COOLING DX SINGLE SPEED 24 6KBTU/HR 11.0EER,Inlet,1
 Non-Parent Node Connection,DU_BT=SPACE FUNCTION_ST=DWELLING UNITS GENERAL_FL=BUILDING STORY 8_SCHG 3 PTAC COOLING COIL OUTLET NODE,COIL:COOLING:DX:SINGLESPEED,COIL COOLING DX SINGLE SPEED 24 6KBTU/HR 11.0EER,Outlet,1
 Non-Parent Node Connection,DU_BT=SPACE FUNCTION_ST=DWELLING UNITS GENERAL_FL=BUILDING STORY 8_SCHG 4 PTAC MIXED AIR NODE,COIL:COOLING:DX:SINGLESPEED,COIL COOLING DX SINGLE SPEED 43 8KBTU/HR 10.8EER,Inlet,1
 Non-Parent Node Connection,DU_BT=SPACE FUNCTION_ST=DWELLING UNITS GENERAL_FL=BUILDING STORY 8_SCHG 4 PTAC COOLING COIL OUTLET NODE,COIL:COOLING:DX:SINGLESPEED,COIL COOLING DX SINGLE SPEED 43 8KBTU/HR 10.8EER,Outlet,1
 Non-Parent Node Connection,DU_BT=SPACE FUNCTION_ST=DWELLING UNITS GENERAL_FL=BUILDING STORY 8_SCHG 5 PTAC MIXED AIR NODE,COIL:COOLING:DX:SINGLESPEED,COIL COOLING DX SINGLE SPEED 49 10KBTU/HR 10.3EER,Inlet,1
 Non-Parent Node Connection,DU_BT=SPACE FUNCTION_ST=DWELLING UNITS GENERAL_FL=BUILDING STORY 8_SCHG 5 PTAC COOLING COIL OUTLET NODE,COIL:COOLING:DX:SINGLESPEED,COIL COOLING DX SINGLE SPEED 49 10KBTU/HR 10.3EER,Outlet,1
 Non-Parent Node Connection,DU_BT=SPACE FUNCTION_ST=DWELLING UNITS GENERAL_FL=BUILDING STORY 8_SCHG 6 PTAC MIXED AIR NODE,COIL:COOLING:DX:SINGLESPEED,COIL COOLING DX SINGLE SPEED 59 11KBTU/HR 10.2EER,Inlet,1
 Non-Parent Node Connection,DU_BT=SPACE FUNCTION_ST=DWELLING UNITS GENERAL_FL=BUILDING STORY 8_SCHG 6 PTAC COOLING COIL OUTLET NODE,COIL:COOLING:DX:SINGLESPEED,COIL COOLING DX SINGLE SPEED 59 11KBTU/HR 10.2EER,Outlet,1
 Non-Parent Node Connection,DU_BT=SPACE FUNCTION_ST=DWELLING UNITS GENERAL_FL=BUILDING STORY 8_SCHG 7 PTAC MIXED AIR NODE,COIL:COOLING:DX:SINGLESPEED,COIL COOLING DX SINGLE SPEED 66 5KBTU/HR 11.0EER,Inlet,1
 Non-Parent Node Connection,DU_BT=SPACE FUNCTION_ST=DWELLING UNITS GENERAL_FL=BUILDING STORY 8_SCHG 7 PTAC COOLING COIL OUTLET NODE,COIL:COOLING:DX:SINGLESPEED,COIL COOLING DX SINGLE SPEED 66 5KBTU/HR 11.0EER,Outlet,1
 Non-Parent Node Connection,DU_BT=SPACE FUNCTION_ST=DWELLING UNITS GENERAL_FL=BUILDING STORY 9_SCHG PTAC MIXED AIR NODE,COIL:COOLING:DX:SINGLESPEED,COIL COOLING DX SINGLE SPEED 19 6KBTU/HR 11.0EER,Inlet,1
 Non-Parent Node Connection,DU_BT=SPACE FUNCTION_ST=DWELLING UNITS GENERAL_FL=BUILDING STORY 9_SCHG PTAC COOLING COIL OUTLET NODE,COIL:COOLING:DX:SINGLESPEED,COIL COOLING DX SINGLE SPEED 19 6KBTU/HR 11.0EER,Outlet,1
 Non-Parent Node Connection,DU_BT=SPACE FUNCTION_ST=DWELLING UNITS GENERAL_FL=BUILDING STORY 9_SCHG 1 PTAC MIXED AIR NODE,COIL:COOLING:DX:SINGLESPEED,COIL COOLING DX SINGLE SPEED 20 8KBTU/HR 10.8EER,Inlet,1
 Non-Parent Node Connection,DU_BT=SPACE FUNCTION_ST=DWELLING UNITS GENERAL_FL=BUILDING STORY 9_SCHG 1 PTAC COOLING COIL OUTLET NODE,COIL:COOLING:DX:SINGLESPEED,COIL COOLING DX SINGLE SPEED 20 8KBTU/HR 10.8EER,Outlet,1
 Non-Parent Node Connection,DU_BT=SPACE FUNCTION_ST=DWELLING UNITS GENERAL_FL=BUILDING STORY 9_SCHG 2 PTAC MIXED AIR NODE,COIL:COOLING:DX:SINGLESPEED,COIL COOLING DX SINGLE SPEED 23 9KBTU/HR 10.7EER,Inlet,1
 Non-Parent Node Connection,DU_BT=SPACE FUNCTION_ST=DWELLING UNITS GENERAL_FL=BUILDING STORY 9_SCHG 2 PTAC COOLING COIL OUTLET NODE,COIL:COOLING:DX:SINGLESPEED,COIL COOLING DX SINGLE SPEED 23 9KBTU/HR 10.7EER,Outlet,1
 Non-Parent Node Connection,DU_BT=SPACE FUNCTION_ST=DWELLING UNITS GENERAL_FL=BUILDING STORY 9_SCHG 3 PTAC MIXED AIR NODE,COIL:COOLING:DX:SINGLESPEED,COIL COOLING DX SINGLE SPEED 32 11KBTU/HR 10.1EER,Inlet,1
 Non-Parent Node Connection,DU_BT=SPACE FUNCTION_ST=DWELLING UNITS GENERAL_FL=BUILDING STORY 9_SCHG 3 PTAC COOLING COIL OUTLET NODE,COIL:COOLING:DX:SINGLESPEED,COIL COOLING DX SINGLE SPEED 32 11KBTU/HR 10.1EER,Outlet,1
 Non-Parent Node Connection,DU_BT=SPACE FUNCTION_ST=DWELLING UNITS GENERAL_FL=BUILDING STORY 9_SCHG 4 PTAC MIXED AIR NODE,COIL:COOLING:DX:SINGLESPEED,COIL COOLING DX SINGLE SPEED 35 10KBTU/HR 10.5EER,Inlet,1
 Non-Parent Node Connection,DU_BT=SPACE FUNCTION_ST=DWELLING UNITS GENERAL_FL=BUILDING STORY 9_SCHG 4 PTAC COOLING COIL OUTLET NODE,COIL:COOLING:DX:SINGLESPEED,COIL COOLING DX SINGLE SPEED 35 10KBTU/HR 10.5EER,Outlet,1
 Non-Parent Node Connection,DU_BT=SPACE FUNCTION_ST=DWELLING UNITS GENERAL_FL=BUILDING STORY 9_SCHG 5 PTAC MIXED AIR NODE,COIL:COOLING:DX:SINGLESPEED,COIL COOLING DX SINGLE SPEED 36 9KBTU/HR 10.7EER,Inlet,1
 Non-Parent Node Connection,DU_BT=SPACE FUNCTION_ST=DWELLING UNITS GENERAL_FL=BUILDING STORY 9_SCHG 5 PTAC COOLING COIL OUTLET NODE,COIL:COOLING:DX:SINGLESPEED,COIL COOLING DX SINGLE SPEED 36 9KBTU/HR 10.7EER,Outlet,1
 Non-Parent Node Connection,DU_BT=SPACE FUNCTION_ST=DWELLING UNITS GENERAL_FL=BUILDING STORY 9_SCHG 6 PTAC MIXED AIR NODE,COIL:COOLING:DX:SINGLESPEED,COIL COOLING DX SINGLE SPEED 37 6KBTU/HR 11.0EER,Inlet,1
 Non-Parent Node Connection,DU_BT=SPACE FUNCTION_ST=DWELLING UNITS GENERAL_FL=BUILDING STORY 9_SCHG 6 PTAC COOLING COIL OUTLET NODE,COIL:COOLING:DX:SINGLESPEED,COIL COOLING DX SINGLE SPEED 37 6KBTU/HR 11.0EER,Outlet,1
 Non-Parent Node Connection,DU_BT=SPACE FUNCTION_ST=DWELLING UNITS GENERAL_FL=BUILDING STORY 9_SCHG 7 PTAC MIXED AIR NODE,COIL:COOLING:DX:SINGLESPEED,COIL COOLING DX SINGLE SPEED 54 11KBTU/HR 10.2EER,Inlet,1
 Non-Parent Node Connection,DU_BT=SPACE FUNCTION_ST=DWELLING UNITS GENERAL_FL=BUILDING STORY 9_SCHG 7 PTAC COOLING COIL OUTLET NODE,COIL:COOLING:DX:SINGLESPEED,COIL COOLING DX SINGLE SPEED 54 11KBTU/HR 10.2EER,Outlet,1
 Non-Parent Node Connection,NODE 36,COIL:COOLING:DX:SINGLESPEED,COIL COOLING DX SINGLE SPEED 1 156KBTU/HR 9.08EER,Inlet,1
 Non-Parent Node Connection,NODE 35,COIL:COOLING:DX:SINGLESPEED,COIL COOLING DX SINGLE SPEED 1 156KBTU/HR 9.08EER,Outlet,1
 Non-Parent Node Connection,NODE 597,COIL:COOLING:DX:SINGLESPEED,COIL COOLING DX SINGLE SPEED 81 61KBTU/HR 14.0SEER,Inlet,1
 Non-Parent Node Connection,NODE 596,COIL:COOLING:DX:SINGLESPEED,COIL COOLING DX SINGLE SPEED 81 61KBTU/HR 14.0SEER,Outlet,1
 Non-Parent Node Connection,NODE 26,AIRLOOPHVAC:ZONEMIXER,AIR LOOP HVAC ZONE MIXER 1,Outlet,1
 Non-Parent Node Connection,NODE 575,AIRLOOPHVAC:ZONEMIXER,AIR LOOP HVAC ZONE MIXER 1,Inlet,1
 Non-Parent Node Connection,NODE 581,AIRLOOPHVAC:ZONEMIXER,AIR LOOP HVAC ZONE MIXER 1,Inlet,1
 Non-Parent Node Connection,NODE 569,AIRLOOPHVAC:ZONEMIXER,AIR LOOP HVAC ZONE MIXER 1,Inlet,1
 Non-Parent Node Connection,NODE 557,AIRLOOPHVAC:ZONEMIXER,AIR LOOP HVAC ZONE MIXER 1,Inlet,1
 Non-Parent Node Connection,NODE 551,AIRLOOPHVAC:ZONEMIXER,AIR LOOP HVAC ZONE MIXER 1,Inlet,1
 Non-Parent Node Connection,NODE 539,AIRLOOPHVAC:ZONEMIXER,AIR LOOP HVAC ZONE MIXER 1,Inlet,1
 Non-Parent Node Connection,NODE 533,AIRLOOPHVAC:ZONEMIXER,AIR LOOP HVAC ZONE MIXER 1,Inlet,1
 Non-Parent Node Connection,NODE 515,AIRLOOPHVAC:ZONEMIXER,AIR LOOP HVAC ZONE MIXER 1,Inlet,1
 Non-Parent Node Connection,NODE 509,AIRLOOPHVAC:ZONEMIXER,AIR LOOP HVAC ZONE MIXER 1,Inlet,1
 Non-Parent Node Connection,NODE 485,AIRLOOPHVAC:ZONEMIXER,AIR LOOP HVAC ZONE MIXER 1,Inlet,1
 Non-Parent Node Connection,NODE 491,AIRLOOPHVAC:ZONEMIXER,AIR LOOP HVAC ZONE MIXER 1,Inlet,1
 Non-Parent Node Connection,NODE 479,AIRLOOPHVAC:ZONEMIXER,AIR LOOP HVAC ZONE MIXER 1,Inlet,1
 Non-Parent Node Connection,NODE 497,AIRLOOPHVAC:ZONEMIXER,AIR LOOP HVAC ZONE MIXER 1,Inlet,1
 Non-Parent Node Connection,NODE 425,AIRLOOPHVAC:ZONEMIXER,AIR LOOP HVAC ZONE MIXER 1,Inlet,1
 Non-Parent Node Connection,NODE 419,AIRLOOPHVAC:ZONEMIXER,AIR LOOP HVAC ZONE MIXER 1,Inlet,1
 Non-Parent Node Connection,NODE 401,AIRLOOPHVAC:ZONEMIXER,AIR LOOP HVAC ZONE MIXER 1,Inlet,1
 Non-Parent Node Connection,NODE 395,AIRLOOPHVAC:ZONEMIXER,AIR LOOP HVAC ZONE MIXER 1,Inlet,1
 Non-Parent Node Connection,NODE 407,AIRLOOPHVAC:ZONEMIXER,AIR LOOP HVAC ZONE MIXER 1,Inlet,1
 Non-Parent Node Connection,NODE 188,AIRLOOPHVAC:ZONEMIXER,AIR LOOP HVAC ZONE MIXER 1,Inlet,1
 Non-Parent Node Connection,NODE 233,AIRLOOPHVAC:ZONEMIXER,AIR LOOP HVAC ZONE MIXER 1,Inlet,1
 Non-Parent Node Connection,NODE 224,AIRLOOPHVAC:ZONEMIXER,AIR LOOP HVAC ZONE MIXER 1,Inlet,1
 Non-Parent Node Connection,NODE 170,AIRLOOPHVAC:ZONEMIXER,AIR LOOP HVAC ZONE MIXER 1,Inlet,1
 Non-Parent Node Connection,NODE 341,AIRLOOPHVAC:ZONEMIXER,AIR LOOP HVAC ZONE MIXER 1,Inlet,1
 Non-Parent Node Connection,NODE 353,AIRLOOPHVAC:ZONEMIXER,AIR LOOP HVAC ZONE MIXER 1,Inlet,1
 Non-Parent Node Connection,NODE 305,AIRLOOPHVAC:ZONEMIXER,AIR LOOP HVAC ZONE MIXER 1,Inlet,1
 Non-Parent Node Connection,NODE 197,AIRLOOPHVAC:ZONEMIXER,AIR LOOP HVAC ZONE MIXER 1,Inlet,1
 Non-Parent Node Connection,NODE 431,AIRLOOPHVAC:ZONEMIXER,AIR LOOP HVAC ZONE MIXER 1,Inlet,1
 Non-Parent Node Connection,NODE 377,AIRLOOPHVAC:ZONEMIXER,AIR LOOP HVAC ZONE MIXER 1,Inlet,1
 Non-Parent Node Connection,NODE 563,AIRLOOPHVAC:ZONEMIXER,AIR LOOP HVAC ZONE MIXER 1,Inlet,1
 Non-Parent Node Connection,NODE 152,AIRLOOPHVAC:ZONEMIXER,AIR LOOP HVAC ZONE MIXER 1,Inlet,1
 Non-Parent Node Connection,NODE 215,AIRLOOPHVAC:ZONEMIXER,AIR LOOP HVAC ZONE MIXER 1,Inlet,1
 Non-Parent Node Connection,NODE 53,AIRLOOPHVAC:ZONEMIXER,AIR LOOP HVAC ZONE MIXER 1,Inlet,1
 Non-Parent Node Connection,NODE 521,AIRLOOPHVAC:ZONEMIXER,AIR LOOP HVAC ZONE MIXER 1,Inlet,1
 Non-Parent Node Connection,NODE 347,AIRLOOPHVAC:ZONEMIXER,AIR LOOP HVAC ZONE MIXER 1,Inlet,1
 Non-Parent Node Connection,NODE 242,AIRLOOPHVAC:ZONEMIXER,AIR LOOP HVAC ZONE MIXER 1,Inlet,1
 Non-Parent Node Connection,NODE 44,AIRLOOPHVAC:ZONEMIXER,AIR LOOP HVAC ZONE MIXER 1,Inlet,1
 Non-Parent Node Connection,NODE 98,AIRLOOPHVAC:ZONEMIXER,AIR LOOP HVAC ZONE MIXER 1,Inlet,1
 Non-Parent Node Connection,NODE 389,AIRLOOPHVAC:ZONEMIXER,AIR LOOP HVAC ZONE MIXER 1,Inlet,1
 Non-Parent Node Connection,NODE 71,AIRLOOPHVAC:ZONEMIXER,AIR LOOP HVAC ZONE MIXER 1,Inlet,1
 Non-Parent Node Connection,NODE 89,AIRLOOPHVAC:ZONEMIXER,AIR LOOP HVAC ZONE MIXER 1,Inlet,1
 Non-Parent Node Connection,NODE 80,AIRLOOPHVAC:ZONEMIXER,AIR LOOP HVAC ZONE MIXER 1,Inlet,1
 Non-Parent Node Connection,NODE 467,AIRLOOPHVAC:ZONEMIXER,AIR LOOP HVAC ZONE MIXER 1,Inlet,1
 Non-Parent Node Connection,NODE 143,AIRLOOPHVAC:ZONEMIXER,AIR LOOP HVAC ZONE MIXER 1,Inlet,1
 Non-Parent Node Connection,NODE 503,AIRLOOPHVAC:ZONEMIXER,AIR LOOP HVAC ZONE MIXER 1,Inlet,1
 Non-Parent Node Connection,NODE 179,AIRLOOPHVAC:ZONEMIXER,AIR LOOP HVAC ZONE MIXER 1,Inlet,1
 Non-Parent Node Connection,NODE 206,AIRLOOPHVAC:ZONEMIXER,AIR LOOP HVAC ZONE MIXER 1,Inlet,1
 Non-Parent Node Connection,NODE 473,AIRLOOPHVAC:ZONEMIXER,AIR LOOP HVAC ZONE MIXER 1,Inlet,1
 Non-Parent Node Connection,NODE 251,AIRLOOPHVAC:ZONEMIXER,AIR LOOP HVAC ZONE MIXER 1,Inlet,1
 Non-Parent Node Connection,NODE 317,AIRLOOPHVAC:ZONEMIXER,AIR LOOP HVAC ZONE MIXER 1,Inlet,1
 Non-Parent Node Connection,NODE 545,AIRLOOPHVAC:ZONEMIXER,AIR LOOP HVAC ZONE MIXER 1,Inlet,1
 Non-Parent Node Connection,NODE 161,AIRLOOPHVAC:ZONEMIXER,AIR LOOP HVAC ZONE MIXER 1,Inlet,1
 Non-Parent Node Connection,NODE 107,AIRLOOPHVAC:ZONEMIXER,AIR LOOP HVAC ZONE MIXER 1,Inlet,1
 Non-Parent Node Connection,NODE 443,AIRLOOPHVAC:ZONEMIXER,AIR LOOP HVAC ZONE MIXER 1,Inlet,1
 Non-Parent Node Connection,NODE 260,AIRLOOPHVAC:ZONEMIXER,AIR LOOP HVAC ZONE MIXER 1,Inlet,1
 Non-Parent Node Connection,NODE 329,AIRLOOPHVAC:ZONEMIXER,AIR LOOP HVAC ZONE MIXER 1,Inlet,1
 Non-Parent Node Connection,NODE 125,AIRLOOPHVAC:ZONEMIXER,AIR LOOP HVAC ZONE MIXER 1,Inlet,1
 Non-Parent Node Connection,NODE 323,AIRLOOPHVAC:ZONEMIXER,AIR LOOP HVAC ZONE MIXER 1,Inlet,1
 Non-Parent Node Connection,NODE 116,AIRLOOPHVAC:ZONEMIXER,AIR LOOP HVAC ZONE MIXER 1,Inlet,1
 Non-Parent Node Connection,NODE 281,AIRLOOPHVAC:ZONEMIXER,AIR LOOP HVAC ZONE MIXER 1,Inlet,1
 Non-Parent Node Connection,NODE 359,AIRLOOPHVAC:ZONEMIXER,AIR LOOP HVAC ZONE MIXER 1,Inlet,1
 Non-Parent Node Connection,NODE 527,AIRLOOPHVAC:ZONEMIXER,AIR LOOP HVAC ZONE MIXER 1,Inlet,1
 Non-Parent Node Connection,NODE 275,AIRLOOPHVAC:ZONEMIXER,AIR LOOP HVAC ZONE MIXER 1,Inlet,1
 Non-Parent Node Connection,NODE 383,AIRLOOPHVAC:ZONEMIXER,AIR LOOP HVAC ZONE MIXER 1,Inlet,1
 Non-Parent Node Connection,NODE 287,AIRLOOPHVAC:ZONEMIXER,AIR LOOP HVAC ZONE MIXER 1,Inlet,1
 Non-Parent Node Connection,NODE 437,AIRLOOPHVAC:ZONEMIXER,AIR LOOP HVAC ZONE MIXER 1,Inlet,1
 Non-Parent Node Connection,NODE 293,AIRLOOPHVAC:ZONEMIXER,AIR LOOP HVAC ZONE MIXER 1,Inlet,1
 Non-Parent Node Connection,NODE 587,AIRLOOPHVAC:ZONEMIXER,AIR LOOP HVAC ZONE MIXER 1,Inlet,1
 Non-Parent Node Connection,NODE 62,AIRLOOPHVAC:ZONEMIXER,AIR LOOP HVAC ZONE MIXER 1,Inlet,1
 Non-Parent Node Connection,NODE 299,AIRLOOPHVAC:ZONEMIXER,AIR LOOP HVAC ZONE MIXER 1,Inlet,1
 Non-Parent Node Connection,NODE 134,AIRLOOPHVAC:ZONEMIXER,AIR LOOP HVAC ZONE MIXER 1,Inlet,1
 Non-Parent Node Connection,NODE 311,AIRLOOPHVAC:ZONEMIXER,AIR LOOP HVAC ZONE MIXER 1,Inlet,1
 Non-Parent Node Connection,NODE 461,AIRLOOPHVAC:ZONEMIXER,AIR LOOP HVAC ZONE MIXER 1,Inlet,1
 Non-Parent Node Connection,NODE 269,AIRLOOPHVAC:ZONEMIXER,AIR LOOP HVAC ZONE MIXER 1,Inlet,1
 Non-Parent Node Connection,NODE 335,AIRLOOPHVAC:ZONEMIXER,AIR LOOP HVAC ZONE MIXER 1,Inlet,1
 Non-Parent Node Connection,NODE 455,AIRLOOPHVAC:ZONEMIXER,AIR LOOP HVAC ZONE MIXER 1,Inlet,1
 Non-Parent Node Connection,NODE 413,AIRLOOPHVAC:ZONEMIXER,AIR LOOP HVAC ZONE MIXER 1,Inlet,1
 Non-Parent Node Connection,NODE 365,AIRLOOPHVAC:ZONEMIXER,AIR LOOP HVAC ZONE MIXER 1,Inlet,1
 Non-Parent Node Connection,NODE 449,AIRLOOPHVAC:ZONEMIXER,AIR LOOP HVAC ZONE MIXER 1,Inlet,1
 Non-Parent Node Connection,NODE 371,AIRLOOPHVAC:ZONEMIXER,AIR LOOP HVAC ZONE MIXER 1,Inlet,1
 Non-Parent Node Connection,NODE 591,AIRLOOPHVAC:ZONEMIXER,AIR LOOP HVAC ZONE MIXER 2,Outlet,1
 Non-Parent Node Connection,NODE 634,AIRLOOPHVAC:ZONEMIXER,AIR LOOP HVAC ZONE MIXER 2,Inlet,1
 Non-Parent Node Connection,NODE 630,AIRLOOPHVAC:ZONEMIXER,AIR LOOP HVAC ZONE MIXER 2,Inlet,1
 Non-Parent Node Connection,NODE 626,AIRLOOPHVAC:ZONEMIXER,AIR LOOP HVAC ZONE MIXER 2,Inlet,1
 Non-Parent Node Connection,NODE 618,AIRLOOPHVAC:ZONEMIXER,AIR LOOP HVAC ZONE MIXER 2,Inlet,1
 Non-Parent Node Connection,NODE 602,AIRLOOPHVAC:ZONEMIXER,AIR LOOP HVAC ZONE MIXER 2,Inlet,1
 Non-Parent Node Connection,NODE 610,AIRLOOPHVAC:ZONEMIXER,AIR LOOP HVAC ZONE MIXER 2,Inlet,1
 Non-Parent Node Connection,NODE 598,AIRLOOPHVAC:ZONEMIXER,AIR LOOP HVAC ZONE MIXER 2,Inlet,1
 Non-Parent Node Connection,NODE 622,AIRLOOPHVAC:ZONEMIXER,AIR LOOP HVAC ZONE MIXER 2,Inlet,1
 Non-Parent Node Connection,NODE 606,AIRLOOPHVAC:ZONEMIXER,AIR LOOP HVAC ZONE MIXER 2,Inlet,1
 Non-Parent Node Connection,NODE 614,AIRLOOPHVAC:ZONEMIXER,AIR LOOP HVAC ZONE MIXER 2,Inlet,1
 Non-Parent Node Connection,NODE 667,AIRLOOPHVAC:ZONEMIXER,AIR LOOP HVAC ZONE MIXER 3,Outlet,1
 Non-Parent Node Connection,NODE 676,AIRLOOPHVAC:ZONEMIXER,AIR LOOP HVAC ZONE MIXER 3,Inlet,1
 Non-Parent Node Connection,NODE 9,COIL:HEATING:WATER,COIL HEATING WATER 1,Inlet,2
 Non-Parent Node Connection,NODE 29,COIL:HEATING:WATER,COIL HEATING WATER 1,Outlet,2
 Non-Parent Node Connection,NODE 35,COIL:HEATING:WATER,COIL HEATING WATER 1,Inlet,1
 Non-Parent Node Connection,NODE 871,COIL:HEATING:WATER,COIL HEATING WATER 1,Outlet,1
 Non-Parent Node Connection,NODE 642,COIL:COOLING:WATER,COIL COOLING WATER 1,Inlet,2
 Non-Parent Node Connection,NODE 669,COIL:COOLING:WATER,COIL COOLING WATER 1,Outlet,2
 Non-Parent Node Connection,NODE 674,COIL:COOLING:WATER,COIL COOLING WATER 1,Inlet,1
 Non-Parent Node Connection,NODE 673,COIL:COOLING:WATER,COIL COOLING WATER 1,Outlet,1
 Non-Parent Node Connection,NODE 871,CONTROLLER:WATERCOIL,CONTROLLER WATER COIL 1,Sensor,1
 Non-Parent Node Connection,NODE 9,CONTROLLER:WATERCOIL,CONTROLLER WATER COIL 1,Actuator,1
 Non-Parent Node Connection,NODE 673,CONTROLLER:WATERCOIL,CONTROLLER WATER COIL 2,Sensor,1
 Non-Parent Node Connection,NODE 642,CONTROLLER:WATERCOIL,CONTROLLER WATER COIL 2,Actuator,1
 Non-Parent Node Connection,NODE 36,CONTROLLER:OUTDOORAIR,CONTROLLER OUTDOOR AIR 1,Sensor,1
 Non-Parent Node Connection,NODE 30,CONTROLLER:OUTDOORAIR,CONTROLLER OUTDOOR AIR 1,Actuator,1
 Non-Parent Node Connection,NODE 856,CONTROLLER:OUTDOORAIR,CONTROLLER OUTDOOR AIR 1,Actuator,1
 Non-Parent Node Connection,NODE 21,CONTROLLER:OUTDOORAIR,CONTROLLER OUTDOOR AIR 1,Sensor,1
 Non-Parent Node Connection,NODE 597,CONTROLLER:OUTDOORAIR,CONTROLLER OUTDOOR AIR 2,Sensor,1
 Non-Parent Node Connection,NODE 593,CONTROLLER:OUTDOORAIR,CONTROLLER OUTDOOR AIR 2,Actuator,1
 Non-Parent Node Connection,NODE 858,CONTROLLER:OUTDOORAIR,CONTROLLER OUTDOOR AIR 2,Actuator,1
 Non-Parent Node Connection,NODE 588,CONTROLLER:OUTDOORAIR,CONTROLLER OUTDOOR AIR 2,Sensor,1
 Non-Parent Node Connection,NODE 674,CONTROLLER:OUTDOORAIR,CONTROLLER OUTDOOR AIR 3,Sensor,1
 Non-Parent Node Connection,NODE 670,CONTROLLER:OUTDOORAIR,CONTROLLER OUTDOOR AIR 3,Actuator,1
 Non-Parent Node Connection,NODE 860,CONTROLLER:OUTDOORAIR,CONTROLLER OUTDOOR AIR 3,Actuator,1
 Non-Parent Node Connection,NODE 675,CONTROLLER:OUTDOORAIR,CONTROLLER OUTDOOR AIR 3,Sensor,1
 Non-Parent Node Connection,NODE 639,CHILLER:ELECTRIC:EIR,PRIMARY CHILLER WATERCOOLED SCROLL 1TONS 0.8KW/TON,Inlet,1
 Non-Parent Node Connection,NODE 644,CHILLER:ELECTRIC:EIR,PRIMARY CHILLER WATERCOOLED SCROLL 1TONS 0.8KW/TON,Outlet,1
 Non-Parent Node Connection,NODE 655,CHILLER:ELECTRIC:EIR,PRIMARY CHILLER WATERCOOLED SCROLL 1TONS 0.8KW/TON,Inlet,2
 Non-Parent Node Connection,NODE 661,CHILLER:ELECTRIC:EIR,PRIMARY CHILLER WATERCOOLED SCROLL 1TONS 0.8KW/TON,Outlet,2
 Non-Parent Node Connection,NODE 645,CHILLER:ELECTRIC:EIR,SECONDARY CHILLER WATERCOOLED SCROLL 0TONS 0.8KW/TON,Inlet,1
 Non-Parent Node Connection,NODE 646,CHILLER:ELECTRIC:EIR,SECONDARY CHILLER WATERCOOLED SCROLL 0TONS 0.8KW/TON,Outlet,1
 Non-Parent Node Connection,NODE 662,CHILLER:ELECTRIC:EIR,SECONDARY CHILLER WATERCOOLED SCROLL 0TONS 0.8KW/TON,Inlet,2
 Non-Parent Node Connection,NODE 663,CHILLER:ELECTRIC:EIR,SECONDARY CHILLER WATERCOOLED SCROLL 0TONS 0.8KW/TON,Outlet,2
 Non-Parent Node Connection,NODE 652,COOLINGTOWER:SINGLESPEED,COOLING TOWER SINGLE SPEED 1,Inlet,1
 Non-Parent Node Connection,NODE 657,COOLINGTOWER:SINGLESPEED,COOLING TOWER SINGLE SPEED 1,Outlet,1
 Non-Parent Node Connection,NODE 5,BOILER:HOTWATER,PRIMARY BOILER 1550KBTU/HR 0.834 THERMAL EFF,Inlet,1
 Non-Parent Node Connection,NODE 12,BOILER:HOTWATER,PRIMARY BOILER 1550KBTU/HR 0.834 THERMAL EFF,Outlet,1
 Non-Parent Node Connection,NODE 14,BOILER:HOTWATER,SECONDARY BOILER 0KBTU/HR 0.847 AFUE,Inlet,1
 Non-Parent Node Connection,NODE 15,BOILER:HOTWATER,SECONDARY BOILER 0KBTU/HR 0.847 AFUE,Outlet,1
 Non-Parent Node Connection,NODE 2,PUMP:VARIABLESPEED,PUMP VARIABLE SPEED 1,Inlet,1
 Non-Parent Node Connection,NODE 11,PUMP:VARIABLESPEED,PUMP VARIABLE SPEED 1,Outlet,1
 Non-Parent Node Connection,NODE 637,PUMP:CONSTANTSPEED,PUMP CONSTANT SPEED 1,Inlet,1
 Non-Parent Node Connection,NODE 643,PUMP:CONSTANTSPEED,PUMP CONSTANT SPEED 1,Outlet,1
 Non-Parent Node Connection,NODE 650,PUMP:CONSTANTSPEED,PUMP CONSTANT SPEED 2,Inlet,1
 Non-Parent Node Connection,NODE 656,PUMP:CONSTANTSPEED,PUMP CONSTANT SPEED 2,Outlet,1
 Non-Parent Node Connection,NODE 680,PUMP:CONSTANTSPEED,SERVICE WATER LOOP PUMP,Inlet,1
 Non-Parent Node Connection,NODE 686,PUMP:CONSTANTSPEED,SERVICE WATER LOOP PUMP,Outlet,1
