! Program Version,EnergyPlus, Version 8.9.0-eba93e8e1b, YMD=2019.08.13 14:50,
! Output:Meter Objects (applicable to this run)
Output:Meter,Electricity:Facility,hourly; !- [J]
Output:Meter:Cumulative,Electricity:Facility,hourly; !- [J]
Output:Meter,Electricity:Building,hourly; !- [J]
Output:Meter:Cumulative,Electricity:Building,hourly; !- [J]
Output:Meter,Electricity:Zone:WILD_ST=CORRIDOR/TRANSITION AREA OTHER-SCH-G_FL=BUILDING STORY 10_SCH=G,hourly; !- [J]
Output:Meter:Cumulative,Electricity:Zone:WILD_ST=CORRIDOR/TRANSITION AREA OTHER-SCH-G_FL=BUILDING STORY 10_SCH=G,hourly; !- [J]
Output:Meter,InteriorLights:Electricity,hourly; !- [J]
Output:Meter:Cumulative,InteriorLights:Electricity,hourly; !- [J]
Output:Meter,InteriorLights:Electricity:Zone:WILD_ST=CORRIDOR/TRANSITION AREA OTHER-SCH-G_FL=BUILDING STORY 10_SCH=G,hourly; !- [J]
Output:Meter:Cumulative,InteriorLights:Electricity:Zone:WILD_ST=CORRIDOR/TRANSITION AREA OTHER-SCH-G_FL=BUILDING STORY 10_SCH=G,hourly; !- [J]
Output:Meter,General:InteriorLights:Electricity,hourly; !- [J]
Output:Meter:Cumulative,General:InteriorLights:Electricity,hourly; !- [J]
Output:Meter,Electricity:Zone:WILD_ST=CORRIDOR/TRANSITION AREA OTHER-SCH-G_FL=BUILDING STORY 1_SCH=G,hourly; !- [J]
Output:Meter:Cumulative,Electricity:Zone:WILD_ST=CORRIDOR/TRANSITION AREA OTHER-SCH-G_FL=BUILDING STORY 1_SCH=G,hourly; !- [J]
Output:Meter,InteriorLights:Electricity:Zone:WILD_ST=CORRIDOR/TRANSITION AREA OTHER-SCH-G_FL=BUILDING STORY 1_SCH=G,hourly; !- [J]
Output:Meter:Cumulative,InteriorLights:Electricity:Zone:WILD_ST=CORRIDOR/TRANSITION AREA OTHER-SCH-G_FL=BUILDING STORY 1_SCH=G,hourly; !- [J]
Output:Meter,Electricity:Zone:WILD_ST=CORRIDOR/TRANSITION AREA OTHER-SCH-G_FL=BUILDING STORY 2_SCH=G,hourly; !- [J]
Output:Meter:Cumulative,Electricity:Zone:WILD_ST=CORRIDOR/TRANSITION AREA OTHER-SCH-G_FL=BUILDING STORY 2_SCH=G,hourly; !- [J]
Output:Meter,InteriorLights:Electricity:Zone:WILD_ST=CORRIDOR/TRANSITION AREA OTHER-SCH-G_FL=BUILDING STORY 2_SCH=G,hourly; !- [J]
Output:Meter:Cumulative,InteriorLights:Electricity:Zone:WILD_ST=CORRIDOR/TRANSITION AREA OTHER-SCH-G_FL=BUILDING STORY 2_SCH=G,hourly; !- [J]
Output:Meter,Electricity:Zone:WILD_ST=CORRIDOR/TRANSITION AREA OTHER-SCH-G_FL=BUILDING STORY 3_SCH=G,hourly; !- [J]
Output:Meter:Cumulative,Electricity:Zone:WILD_ST=CORRIDOR/TRANSITION AREA OTHER-SCH-G_FL=BUILDING STORY 3_SCH=G,hourly; !- [J]
Output:Meter,InteriorLights:Electricity:Zone:WILD_ST=CORRIDOR/TRANSITION AREA OTHER-SCH-G_FL=BUILDING STORY 3_SCH=G,hourly; !- [J]
Output:Meter:Cumulative,InteriorLights:Electricity:Zone:WILD_ST=CORRIDOR/TRANSITION AREA OTHER-SCH-G_FL=BUILDING STORY 3_SCH=G,hourly; !- [J]
Output:Meter,Electricity:Zone:WILD_ST=CORRIDOR/TRANSITION AREA OTHER-SCH-G_FL=BUILDING STORY 4_SCH=G,hourly; !- [J]
Output:Meter:Cumulative,Electricity:Zone:WILD_ST=CORRIDOR/TRANSITION AREA OTHER-SCH-G_FL=BUILDING STORY 4_SCH=G,hourly; !- [J]
Output:Meter,InteriorLights:Electricity:Zone:WILD_ST=CORRIDOR/TRANSITION AREA OTHER-SCH-G_FL=BUILDING STORY 4_SCH=G,hourly; !- [J]
Output:Meter:Cumulative,InteriorLights:Electricity:Zone:WILD_ST=CORRIDOR/TRANSITION AREA OTHER-SCH-G_FL=BUILDING STORY 4_SCH=G,hourly; !- [J]
Output:Meter,Electricity:Zone:WILD_ST=CORRIDOR/TRANSITION AREA OTHER-SCH-G_FL=BUILDING STORY 5_SCH=G,hourly; !- [J]
Output:Meter:Cumulative,Electricity:Zone:WILD_ST=CORRIDOR/TRANSITION AREA OTHER-SCH-G_FL=BUILDING STORY 5_SCH=G,hourly; !- [J]
Output:Meter,InteriorLights:Electricity:Zone:WILD_ST=CORRIDOR/TRANSITION AREA OTHER-SCH-G_FL=BUILDING STORY 5_SCH=G,hourly; !- [J]
Output:Meter:Cumulative,InteriorLights:Electricity:Zone:WILD_ST=CORRIDOR/TRANSITION AREA OTHER-SCH-G_FL=BUILDING STORY 5_SCH=G,hourly; !- [J]
Output:Meter,Electricity:Zone:WILD_ST=CORRIDOR/TRANSITION AREA OTHER-SCH-G_FL=BUILDING STORY 6_SCH=G,hourly; !- [J]
Output:Meter:Cumulative,Electricity:Zone:WILD_ST=CORRIDOR/TRANSITION AREA OTHER-SCH-G_FL=BUILDING STORY 6_SCH=G,hourly; !- [J]
Output:Meter,InteriorLights:Electricity:Zone:WILD_ST=CORRIDOR/TRANSITION AREA OTHER-SCH-G_FL=BUILDING STORY 6_SCH=G,hourly; !- [J]
Output:Meter:Cumulative,InteriorLights:Electricity:Zone:WILD_ST=CORRIDOR/TRANSITION AREA OTHER-SCH-G_FL=BUILDING STORY 6_SCH=G,hourly; !- [J]
Output:Meter,Electricity:Zone:WILD_ST=CORRIDOR/TRANSITION AREA OTHER-SCH-G_FL=BUILDING STORY 7_SCH=G,hourly; !- [J]
Output:Meter:Cumulative,Electricity:Zone:WILD_ST=CORRIDOR/TRANSITION AREA OTHER-SCH-G_FL=BUILDING STORY 7_SCH=G,hourly; !- [J]
Output:Meter,InteriorLights:Electricity:Zone:WILD_ST=CORRIDOR/TRANSITION AREA OTHER-SCH-G_FL=BUILDING STORY 7_SCH=G,hourly; !- [J]
Output:Meter:Cumulative,InteriorLights:Electricity:Zone:WILD_ST=CORRIDOR/TRANSITION AREA OTHER-SCH-G_FL=BUILDING STORY 7_SCH=G,hourly; !- [J]
Output:Meter,Electricity:Zone:WILD_ST=CORRIDOR/TRANSITION AREA OTHER-SCH-G_FL=BUILDING STORY 8_SCH=G,hourly; !- [J]
Output:Meter:Cumulative,Electricity:Zone:WILD_ST=CORRIDOR/TRANSITION AREA OTHER-SCH-G_FL=BUILDING STORY 8_SCH=G,hourly; !- [J]
Output:Meter,InteriorLights:Electricity:Zone:WILD_ST=CORRIDOR/TRANSITION AREA OTHER-SCH-G_FL=BUILDING STORY 8_SCH=G,hourly; !- [J]
Output:Meter:Cumulative,InteriorLights:Electricity:Zone:WILD_ST=CORRIDOR/TRANSITION AREA OTHER-SCH-G_FL=BUILDING STORY 8_SCH=G,hourly; !- [J]
Output:Meter,Electricity:Zone:WILD_ST=CORRIDOR/TRANSITION AREA OTHER-SCH-G_FL=BUILDING STORY 9_SCH=G,hourly; !- [J]
Output:Meter:Cumulative,Electricity:Zone:WILD_ST=CORRIDOR/TRANSITION AREA OTHER-SCH-G_FL=BUILDING STORY 9_SCH=G,hourly; !- [J]
Output:Meter,InteriorLights:Electricity:Zone:WILD_ST=CORRIDOR/TRANSITION AREA OTHER-SCH-G_FL=BUILDING STORY 9_SCH=G,hourly; !- [J]
Output:Meter:Cumulative,InteriorLights:Electricity:Zone:WILD_ST=CORRIDOR/TRANSITION AREA OTHER-SCH-G_FL=BUILDING STORY 9_SCH=G,hourly; !- [J]
Output:Meter,Electricity:Zone:DU_BT=SPACE FUNCTION_ST=DWELLING UNITS GENERAL_FL=BUILDING STORY 10_SCHG,hourly; !- [J]
Output:Meter:Cumulative,Electricity:Zone:DU_BT=SPACE FUNCTION_ST=DWELLING UNITS GENERAL_FL=BUILDING STORY 10_SCHG,hourly; !- [J]
Output:Meter,InteriorLights:Electricity:Zone:DU_BT=SPACE FUNCTION_ST=DWELLING UNITS GENERAL_FL=BUILDING STORY 10_SCHG,hourly; !- [J]
Output:Meter:Cumulative,InteriorLights:Electricity:Zone:DU_BT=SPACE FUNCTION_ST=DWELLING UNITS GENERAL_FL=BUILDING STORY 10_SCHG,hourly; !- [J]
Output:Meter,Electricity:Zone:DU_BT=SPACE FUNCTION_ST=DWELLING UNITS GENERAL_FL=BUILDING STORY 10_SCHG 1,hourly; !- [J]
Output:Meter:Cumulative,Electricity:Zone:DU_BT=SPACE FUNCTION_ST=DWELLING UNITS GENERAL_FL=BUILDING STORY 10_SCHG 1,hourly; !- [J]
Output:Meter,InteriorLights:Electricity:Zone:DU_BT=SPACE FUNCTION_ST=DWELLING UNITS GENERAL_FL=BUILDING STORY 10_SCHG 1,hourly; !- [J]
Output:Meter:Cumulative,InteriorLights:Electricity:Zone:DU_BT=SPACE FUNCTION_ST=DWELLING UNITS GENERAL_FL=BUILDING STORY 10_SCHG 1,hourly; !- [J]
Output:Meter,Electricity:Zone:DU_BT=SPACE FUNCTION_ST=DWELLING UNITS GENERAL_FL=BUILDING STORY 10_SCHG 2,hourly; !- [J]
Output:Meter:Cumulative,Electricity:Zone:DU_BT=SPACE FUNCTION_ST=DWELLING UNITS GENERAL_FL=BUILDING STORY 10_SCHG 2,hourly; !- [J]
Output:Meter,InteriorLights:Electricity:Zone:DU_BT=SPACE FUNCTION_ST=DWELLING UNITS GENERAL_FL=BUILDING STORY 10_SCHG 2,hourly; !- [J]
Output:Meter:Cumulative,InteriorLights:Electricity:Zone:DU_BT=SPACE FUNCTION_ST=DWELLING UNITS GENERAL_FL=BUILDING STORY 10_SCHG 2,hourly; !- [J]
Output:Meter,Electricity:Zone:DU_BT=SPACE FUNCTION_ST=DWELLING UNITS GENERAL_FL=BUILDING STORY 10_SCHG 3,hourly; !- [J]
Output:Meter:Cumulative,Electricity:Zone:DU_BT=SPACE FUNCTION_ST=DWELLING UNITS GENERAL_FL=BUILDING STORY 10_SCHG 3,hourly; !- [J]
Output:Meter,InteriorLights:Electricity:Zone:DU_BT=SPACE FUNCTION_ST=DWELLING UNITS GENERAL_FL=BUILDING STORY 10_SCHG 3,hourly; !- [J]
Output:Meter:Cumulative,InteriorLights:Electricity:Zone:DU_BT=SPACE FUNCTION_ST=DWELLING UNITS GENERAL_FL=BUILDING STORY 10_SCHG 3,hourly; !- [J]
Output:Meter,Electricity:Zone:DU_BT=SPACE FUNCTION_ST=DWELLING UNITS GENERAL_FL=BUILDING STORY 10_SCHG 4,hourly; !- [J]
Output:Meter:Cumulative,Electricity:Zone:DU_BT=SPACE FUNCTION_ST=DWELLING UNITS GENERAL_FL=BUILDING STORY 10_SCHG 4,hourly; !- [J]
Output:Meter,InteriorLights:Electricity:Zone:DU_BT=SPACE FUNCTION_ST=DWELLING UNITS GENERAL_FL=BUILDING STORY 10_SCHG 4,hourly; !- [J]
Output:Meter:Cumulative,InteriorLights:Electricity:Zone:DU_BT=SPACE FUNCTION_ST=DWELLING UNITS GENERAL_FL=BUILDING STORY 10_SCHG 4,hourly; !- [J]
Output:Meter,Electricity:Zone:DU_BT=SPACE FUNCTION_ST=DWELLING UNITS GENERAL_FL=BUILDING STORY 10_SCHG 5,hourly; !- [J]
Output:Meter:Cumulative,Electricity:Zone:DU_BT=SPACE FUNCTION_ST=DWELLING UNITS GENERAL_FL=BUILDING STORY 10_SCHG 5,hourly; !- [J]
Output:Meter,InteriorLights:Electricity:Zone:DU_BT=SPACE FUNCTION_ST=DWELLING UNITS GENERAL_FL=BUILDING STORY 10_SCHG 5,hourly; !- [J]
Output:Meter:Cumulative,InteriorLights:Electricity:Zone:DU_BT=SPACE FUNCTION_ST=DWELLING UNITS GENERAL_FL=BUILDING STORY 10_SCHG 5,hourly; !- [J]
Output:Meter,Electricity:Zone:DU_BT=SPACE FUNCTION_ST=DWELLING UNITS GENERAL_FL=BUILDING STORY 10_SCHG 6,hourly; !- [J]
Output:Meter:Cumulative,Electricity:Zone:DU_BT=SPACE FUNCTION_ST=DWELLING UNITS GENERAL_FL=BUILDING STORY 10_SCHG 6,hourly; !- [J]
Output:Meter,InteriorLights:Electricity:Zone:DU_BT=SPACE FUNCTION_ST=DWELLING UNITS GENERAL_FL=BUILDING STORY 10_SCHG 6,hourly; !- [J]
Output:Meter:Cumulative,InteriorLights:Electricity:Zone:DU_BT=SPACE FUNCTION_ST=DWELLING UNITS GENERAL_FL=BUILDING STORY 10_SCHG 6,hourly; !- [J]
Output:Meter,Electricity:Zone:DU_BT=SPACE FUNCTION_ST=DWELLING UNITS GENERAL_FL=BUILDING STORY 10_SCHG 7,hourly; !- [J]
Output:Meter:Cumulative,Electricity:Zone:DU_BT=SPACE FUNCTION_ST=DWELLING UNITS GENERAL_FL=BUILDING STORY 10_SCHG 7,hourly; !- [J]
Output:Meter,InteriorLights:Electricity:Zone:DU_BT=SPACE FUNCTION_ST=DWELLING UNITS GENERAL_FL=BUILDING STORY 10_SCHG 7,hourly; !- [J]
Output:Meter:Cumulative,InteriorLights:Electricity:Zone:DU_BT=SPACE FUNCTION_ST=DWELLING UNITS GENERAL_FL=BUILDING STORY 10_SCHG 7,hourly; !- [J]
Output:Meter,Electricity:Zone:DU_BT=SPACE FUNCTION_ST=DWELLING UNITS GENERAL_FL=BUILDING STORY 1_SCHG,hourly; !- [J]
Output:Meter:Cumulative,Electricity:Zone:DU_BT=SPACE FUNCTION_ST=DWELLING UNITS GENERAL_FL=BUILDING STORY 1_SCHG,hourly; !- [J]
Output:Meter,InteriorLights:Electricity:Zone:DU_BT=SPACE FUNCTION_ST=DWELLING UNITS GENERAL_FL=BUILDING STORY 1_SCHG,hourly; !- [J]
Output:Meter:Cumulative,InteriorLights:Electricity:Zone:DU_BT=SPACE FUNCTION_ST=DWELLING UNITS GENERAL_FL=BUILDING STORY 1_SCHG,hourly; !- [J]
Output:Meter,Electricity:Zone:DU_BT=SPACE FUNCTION_ST=DWELLING UNITS GENERAL_FL=BUILDING STORY 1_SCHG 1,hourly; !- [J]
Output:Meter:Cumulative,Electricity:Zone:DU_BT=SPACE FUNCTION_ST=DWELLING UNITS GENERAL_FL=BUILDING STORY 1_SCHG 1,hourly; !- [J]
Output:Meter,InteriorLights:Electricity:Zone:DU_BT=SPACE FUNCTION_ST=DWELLING UNITS GENERAL_FL=BUILDING STORY 1_SCHG 1,hourly; !- [J]
Output:Meter:Cumulative,InteriorLights:Electricity:Zone:DU_BT=SPACE FUNCTION_ST=DWELLING UNITS GENERAL_FL=BUILDING STORY 1_SCHG 1,hourly; !- [J]
Output:Meter,Electricity:Zone:DU_BT=SPACE FUNCTION_ST=DWELLING UNITS GENERAL_FL=BUILDING STORY 1_SCHG 2,hourly; !- [J]
Output:Meter:Cumulative,Electricity:Zone:DU_BT=SPACE FUNCTION_ST=DWELLING UNITS GENERAL_FL=BUILDING STORY 1_SCHG 2,hourly; !- [J]
Output:Meter,InteriorLights:Electricity:Zone:DU_BT=SPACE FUNCTION_ST=DWELLING UNITS GENERAL_FL=BUILDING STORY 1_SCHG 2,hourly; !- [J]
Output:Meter:Cumulative,InteriorLights:Electricity:Zone:DU_BT=SPACE FUNCTION_ST=DWELLING UNITS GENERAL_FL=BUILDING STORY 1_SCHG 2,hourly; !- [J]
Output:Meter,Electricity:Zone:DU_BT=SPACE FUNCTION_ST=DWELLING UNITS GENERAL_FL=BUILDING STORY 1_SCHG 3,hourly; !- [J]
Output:Meter:Cumulative,Electricity:Zone:DU_BT=SPACE FUNCTION_ST=DWELLING UNITS GENERAL_FL=BUILDING STORY 1_SCHG 3,hourly; !- [J]
Output:Meter,InteriorLights:Electricity:Zone:DU_BT=SPACE FUNCTION_ST=DWELLING UNITS GENERAL_FL=BUILDING STORY 1_SCHG 3,hourly; !- [J]
Output:Meter:Cumulative,InteriorLights:Electricity:Zone:DU_BT=SPACE FUNCTION_ST=DWELLING UNITS GENERAL_FL=BUILDING STORY 1_SCHG 3,hourly; !- [J]
Output:Meter,Electricity:Zone:DU_BT=SPACE FUNCTION_ST=DWELLING UNITS GENERAL_FL=BUILDING STORY 1_SCHG 4,hourly; !- [J]
Output:Meter:Cumulative,Electricity:Zone:DU_BT=SPACE FUNCTION_ST=DWELLING UNITS GENERAL_FL=BUILDING STORY 1_SCHG 4,hourly; !- [J]
Output:Meter,InteriorLights:Electricity:Zone:DU_BT=SPACE FUNCTION_ST=DWELLING UNITS GENERAL_FL=BUILDING STORY 1_SCHG 4,hourly; !- [J]
Output:Meter:Cumulative,InteriorLights:Electricity:Zone:DU_BT=SPACE FUNCTION_ST=DWELLING UNITS GENERAL_FL=BUILDING STORY 1_SCHG 4,hourly; !- [J]
Output:Meter,Electricity:Zone:DU_BT=SPACE FUNCTION_ST=DWELLING UNITS GENERAL_FL=BUILDING STORY 1_SCHG 5,hourly; !- [J]
Output:Meter:Cumulative,Electricity:Zone:DU_BT=SPACE FUNCTION_ST=DWELLING UNITS GENERAL_FL=BUILDING STORY 1_SCHG 5,hourly; !- [J]
Output:Meter,InteriorLights:Electricity:Zone:DU_BT=SPACE FUNCTION_ST=DWELLING UNITS GENERAL_FL=BUILDING STORY 1_SCHG 5,hourly; !- [J]
Output:Meter:Cumulative,InteriorLights:Electricity:Zone:DU_BT=SPACE FUNCTION_ST=DWELLING UNITS GENERAL_FL=BUILDING STORY 1_SCHG 5,hourly; !- [J]
Output:Meter,Electricity:Zone:DU_BT=SPACE FUNCTION_ST=DWELLING UNITS GENERAL_FL=BUILDING STORY 1_SCHG 6,hourly; !- [J]
Output:Meter:Cumulative,Electricity:Zone:DU_BT=SPACE FUNCTION_ST=DWELLING UNITS GENERAL_FL=BUILDING STORY 1_SCHG 6,hourly; !- [J]
Output:Meter,InteriorLights:Electricity:Zone:DU_BT=SPACE FUNCTION_ST=DWELLING UNITS GENERAL_FL=BUILDING STORY 1_SCHG 6,hourly; !- [J]
Output:Meter:Cumulative,InteriorLights:Electricity:Zone:DU_BT=SPACE FUNCTION_ST=DWELLING UNITS GENERAL_FL=BUILDING STORY 1_SCHG 6,hourly; !- [J]
Output:Meter,Electricity:Zone:DU_BT=SPACE FUNCTION_ST=DWELLING UNITS GENERAL_FL=BUILDING STORY 2_SCHG,hourly; !- [J]
Output:Meter:Cumulative,Electricity:Zone:DU_BT=SPACE FUNCTION_ST=DWELLING UNITS GENERAL_FL=BUILDING STORY 2_SCHG,hourly; !- [J]
Output:Meter,InteriorLights:Electricity:Zone:DU_BT=SPACE FUNCTION_ST=DWELLING UNITS GENERAL_FL=BUILDING STORY 2_SCHG,hourly; !- [J]
Output:Meter:Cumulative,InteriorLights:Electricity:Zone:DU_BT=SPACE FUNCTION_ST=DWELLING UNITS GENERAL_FL=BUILDING STORY 2_SCHG,hourly; !- [J]
Output:Meter,Electricity:Zone:DU_BT=SPACE FUNCTION_ST=DWELLING UNITS GENERAL_FL=BUILDING STORY 2_SCHG 1,hourly; !- [J]
Output:Meter:Cumulative,Electricity:Zone:DU_BT=SPACE FUNCTION_ST=DWELLING UNITS GENERAL_FL=BUILDING STORY 2_SCHG 1,hourly; !- [J]
Output:Meter,InteriorLights:Electricity:Zone:DU_BT=SPACE FUNCTION_ST=DWELLING UNITS GENERAL_FL=BUILDING STORY 2_SCHG 1,hourly; !- [J]
Output:Meter:Cumulative,InteriorLights:Electricity:Zone:DU_BT=SPACE FUNCTION_ST=DWELLING UNITS GENERAL_FL=BUILDING STORY 2_SCHG 1,hourly; !- [J]
Output:Meter,Electricity:Zone:DU_BT=SPACE FUNCTION_ST=DWELLING UNITS GENERAL_FL=BUILDING STORY 2_SCHG 2,hourly; !- [J]
Output:Meter:Cumulative,Electricity:Zone:DU_BT=SPACE FUNCTION_ST=DWELLING UNITS GENERAL_FL=BUILDING STORY 2_SCHG 2,hourly; !- [J]
Output:Meter,InteriorLights:Electricity:Zone:DU_BT=SPACE FUNCTION_ST=DWELLING UNITS GENERAL_FL=BUILDING STORY 2_SCHG 2,hourly; !- [J]
Output:Meter:Cumulative,InteriorLights:Electricity:Zone:DU_BT=SPACE FUNCTION_ST=DWELLING UNITS GENERAL_FL=BUILDING STORY 2_SCHG 2,hourly; !- [J]
Output:Meter,Electricity:Zone:DU_BT=SPACE FUNCTION_ST=DWELLING UNITS GENERAL_FL=BUILDING STORY 2_SCHG 3,hourly; !- [J]
Output:Meter:Cumulative,Electricity:Zone:DU_BT=SPACE FUNCTION_ST=DWELLING UNITS GENERAL_FL=BUILDING STORY 2_SCHG 3,hourly; !- [J]
Output:Meter,InteriorLights:Electricity:Zone:DU_BT=SPACE FUNCTION_ST=DWELLING UNITS GENERAL_FL=BUILDING STORY 2_SCHG 3,hourly; !- [J]
Output:Meter:Cumulative,InteriorLights:Electricity:Zone:DU_BT=SPACE FUNCTION_ST=DWELLING UNITS GENERAL_FL=BUILDING STORY 2_SCHG 3,hourly; !- [J]
Output:Meter,Electricity:Zone:DU_BT=SPACE FUNCTION_ST=DWELLING UNITS GENERAL_FL=BUILDING STORY 2_SCHG 4,hourly; !- [J]
Output:Meter:Cumulative,Electricity:Zone:DU_BT=SPACE FUNCTION_ST=DWELLING UNITS GENERAL_FL=BUILDING STORY 2_SCHG 4,hourly; !- [J]
Output:Meter,InteriorLights:Electricity:Zone:DU_BT=SPACE FUNCTION_ST=DWELLING UNITS GENERAL_FL=BUILDING STORY 2_SCHG 4,hourly; !- [J]
Output:Meter:Cumulative,InteriorLights:Electricity:Zone:DU_BT=SPACE FUNCTION_ST=DWELLING UNITS GENERAL_FL=BUILDING STORY 2_SCHG 4,hourly; !- [J]
Output:Meter,Electricity:Zone:DU_BT=SPACE FUNCTION_ST=DWELLING UNITS GENERAL_FL=BUILDING STORY 2_SCHG 5,hourly; !- [J]
Output:Meter:Cumulative,Electricity:Zone:DU_BT=SPACE FUNCTION_ST=DWELLING UNITS GENERAL_FL=BUILDING STORY 2_SCHG 5,hourly; !- [J]
Output:Meter,InteriorLights:Electricity:Zone:DU_BT=SPACE FUNCTION_ST=DWELLING UNITS GENERAL_FL=BUILDING STORY 2_SCHG 5,hourly; !- [J]
Output:Meter:Cumulative,InteriorLights:Electricity:Zone:DU_BT=SPACE FUNCTION_ST=DWELLING UNITS GENERAL_FL=BUILDING STORY 2_SCHG 5,hourly; !- [J]
Output:Meter,Electricity:Zone:DU_BT=SPACE FUNCTION_ST=DWELLING UNITS GENERAL_FL=BUILDING STORY 2_SCHG 6,hourly; !- [J]
Output:Meter:Cumulative,Electricity:Zone:DU_BT=SPACE FUNCTION_ST=DWELLING UNITS GENERAL_FL=BUILDING STORY 2_SCHG 6,hourly; !- [J]
Output:Meter,InteriorLights:Electricity:Zone:DU_BT=SPACE FUNCTION_ST=DWELLING UNITS GENERAL_FL=BUILDING STORY 2_SCHG 6,hourly; !- [J]
Output:Meter:Cumulative,InteriorLights:Electricity:Zone:DU_BT=SPACE FUNCTION_ST=DWELLING UNITS GENERAL_FL=BUILDING STORY 2_SCHG 6,hourly; !- [J]
Output:Meter,Electricity:Zone:DU_BT=SPACE FUNCTION_ST=DWELLING UNITS GENERAL_FL=BUILDING STORY 2_SCHG 7,hourly; !- [J]
Output:Meter:Cumulative,Electricity:Zone:DU_BT=SPACE FUNCTION_ST=DWELLING UNITS GENERAL_FL=BUILDING STORY 2_SCHG 7,hourly; !- [J]
Output:Meter,InteriorLights:Electricity:Zone:DU_BT=SPACE FUNCTION_ST=DWELLING UNITS GENERAL_FL=BUILDING STORY 2_SCHG 7,hourly; !- [J]
Output:Meter:Cumulative,InteriorLights:Electricity:Zone:DU_BT=SPACE FUNCTION_ST=DWELLING UNITS GENERAL_FL=BUILDING STORY 2_SCHG 7,hourly; !- [J]
Output:Meter,Electricity:Zone:DU_BT=SPACE FUNCTION_ST=DWELLING UNITS GENERAL_FL=BUILDING STORY 3_SCHG,hourly; !- [J]
Output:Meter:Cumulative,Electricity:Zone:DU_BT=SPACE FUNCTION_ST=DWELLING UNITS GENERAL_FL=BUILDING STORY 3_SCHG,hourly; !- [J]
Output:Meter,InteriorLights:Electricity:Zone:DU_BT=SPACE FUNCTION_ST=DWELLING UNITS GENERAL_FL=BUILDING STORY 3_SCHG,hourly; !- [J]
Output:Meter:Cumulative,InteriorLights:Electricity:Zone:DU_BT=SPACE FUNCTION_ST=DWELLING UNITS GENERAL_FL=BUILDING STORY 3_SCHG,hourly; !- [J]
Output:Meter,Electricity:Zone:DU_BT=SPACE FUNCTION_ST=DWELLING UNITS GENERAL_FL=BUILDING STORY 3_SCHG 1,hourly; !- [J]
Output:Meter:Cumulative,Electricity:Zone:DU_BT=SPACE FUNCTION_ST=DWELLING UNITS GENERAL_FL=BUILDING STORY 3_SCHG 1,hourly; !- [J]
Output:Meter,InteriorLights:Electricity:Zone:DU_BT=SPACE FUNCTION_ST=DWELLING UNITS GENERAL_FL=BUILDING STORY 3_SCHG 1,hourly; !- [J]
Output:Meter:Cumulative,InteriorLights:Electricity:Zone:DU_BT=SPACE FUNCTION_ST=DWELLING UNITS GENERAL_FL=BUILDING STORY 3_SCHG 1,hourly; !- [J]
Output:Meter,Electricity:Zone:DU_BT=SPACE FUNCTION_ST=DWELLING UNITS GENERAL_FL=BUILDING STORY 3_SCHG 2,hourly; !- [J]
Output:Meter:Cumulative,Electricity:Zone:DU_BT=SPACE FUNCTION_ST=DWELLING UNITS GENERAL_FL=BUILDING STORY 3_SCHG 2,hourly; !- [J]
Output:Meter,InteriorLights:Electricity:Zone:DU_BT=SPACE FUNCTION_ST=DWELLING UNITS GENERAL_FL=BUILDING STORY 3_SCHG 2,hourly; !- [J]
Output:Meter:Cumulative,InteriorLights:Electricity:Zone:DU_BT=SPACE FUNCTION_ST=DWELLING UNITS GENERAL_FL=BUILDING STORY 3_SCHG 2,hourly; !- [J]
Output:Meter,Electricity:Zone:DU_BT=SPACE FUNCTION_ST=DWELLING UNITS GENERAL_FL=BUILDING STORY 3_SCHG 3,hourly; !- [J]
Output:Meter:Cumulative,Electricity:Zone:DU_BT=SPACE FUNCTION_ST=DWELLING UNITS GENERAL_FL=BUILDING STORY 3_SCHG 3,hourly; !- [J]
Output:Meter,InteriorLights:Electricity:Zone:DU_BT=SPACE FUNCTION_ST=DWELLING UNITS GENERAL_FL=BUILDING STORY 3_SCHG 3,hourly; !- [J]
Output:Meter:Cumulative,InteriorLights:Electricity:Zone:DU_BT=SPACE FUNCTION_ST=DWELLING UNITS GENERAL_FL=BUILDING STORY 3_SCHG 3,hourly; !- [J]
Output:Meter,Electricity:Zone:DU_BT=SPACE FUNCTION_ST=DWELLING UNITS GENERAL_FL=BUILDING STORY 3_SCHG 4,hourly; !- [J]
Output:Meter:Cumulative,Electricity:Zone:DU_BT=SPACE FUNCTION_ST=DWELLING UNITS GENERAL_FL=BUILDING STORY 3_SCHG 4,hourly; !- [J]
Output:Meter,InteriorLights:Electricity:Zone:DU_BT=SPACE FUNCTION_ST=DWELLING UNITS GENERAL_FL=BUILDING STORY 3_SCHG 4,hourly; !- [J]
Output:Meter:Cumulative,InteriorLights:Electricity:Zone:DU_BT=SPACE FUNCTION_ST=DWELLING UNITS GENERAL_FL=BUILDING STORY 3_SCHG 4,hourly; !- [J]
Output:Meter,Electricity:Zone:DU_BT=SPACE FUNCTION_ST=DWELLING UNITS GENERAL_FL=BUILDING STORY 3_SCHG 5,hourly; !- [J]
Output:Meter:Cumulative,Electricity:Zone:DU_BT=SPACE FUNCTION_ST=DWELLING UNITS GENERAL_FL=BUILDING STORY 3_SCHG 5,hourly; !- [J]
Output:Meter,InteriorLights:Electricity:Zone:DU_BT=SPACE FUNCTION_ST=DWELLING UNITS GENERAL_FL=BUILDING STORY 3_SCHG 5,hourly; !- [J]
Output:Meter:Cumulative,InteriorLights:Electricity:Zone:DU_BT=SPACE FUNCTION_ST=DWELLING UNITS GENERAL_FL=BUILDING STORY 3_SCHG 5,hourly; !- [J]
Output:Meter,Electricity:Zone:DU_BT=SPACE FUNCTION_ST=DWELLING UNITS GENERAL_FL=BUILDING STORY 3_SCHG 6,hourly; !- [J]
Output:Meter:Cumulative,Electricity:Zone:DU_BT=SPACE FUNCTION_ST=DWELLING UNITS GENERAL_FL=BUILDING STORY 3_SCHG 6,hourly; !- [J]
Output:Meter,InteriorLights:Electricity:Zone:DU_BT=SPACE FUNCTION_ST=DWELLING UNITS GENERAL_FL=BUILDING STORY 3_SCHG 6,hourly; !- [J]
Output:Meter:Cumulative,InteriorLights:Electricity:Zone:DU_BT=SPACE FUNCTION_ST=DWELLING UNITS GENERAL_FL=BUILDING STORY 3_SCHG 6,hourly; !- [J]
Output:Meter,Electricity:Zone:DU_BT=SPACE FUNCTION_ST=DWELLING UNITS GENERAL_FL=BUILDING STORY 3_SCHG 7,hourly; !- [J]
Output:Meter:Cumulative,Electricity:Zone:DU_BT=SPACE FUNCTION_ST=DWELLING UNITS GENERAL_FL=BUILDING STORY 3_SCHG 7,hourly; !- [J]
Output:Meter,InteriorLights:Electricity:Zone:DU_BT=SPACE FUNCTION_ST=DWELLING UNITS GENERAL_FL=BUILDING STORY 3_SCHG 7,hourly; !- [J]
Output:Meter:Cumulative,InteriorLights:Electricity:Zone:DU_BT=SPACE FUNCTION_ST=DWELLING UNITS GENERAL_FL=BUILDING STORY 3_SCHG 7,hourly; !- [J]
Output:Meter,Electricity:Zone:DU_BT=SPACE FUNCTION_ST=DWELLING UNITS GENERAL_FL=BUILDING STORY 4_SCHG,hourly; !- [J]
Output:Meter:Cumulative,Electricity:Zone:DU_BT=SPACE FUNCTION_ST=DWELLING UNITS GENERAL_FL=BUILDING STORY 4_SCHG,hourly; !- [J]
Output:Meter,InteriorLights:Electricity:Zone:DU_BT=SPACE FUNCTION_ST=DWELLING UNITS GENERAL_FL=BUILDING STORY 4_SCHG,hourly; !- [J]
Output:Meter:Cumulative,InteriorLights:Electricity:Zone:DU_BT=SPACE FUNCTION_ST=DWELLING UNITS GENERAL_FL=BUILDING STORY 4_SCHG,hourly; !- [J]
Output:Meter,Electricity:Zone:DU_BT=SPACE FUNCTION_ST=DWELLING UNITS GENERAL_FL=BUILDING STORY 4_SCHG 1,hourly; !- [J]
Output:Meter:Cumulative,Electricity:Zone:DU_BT=SPACE FUNCTION_ST=DWELLING UNITS GENERAL_FL=BUILDING STORY 4_SCHG 1,hourly; !- [J]
Output:Meter,InteriorLights:Electricity:Zone:DU_BT=SPACE FUNCTION_ST=DWELLING UNITS GENERAL_FL=BUILDING STORY 4_SCHG 1,hourly; !- [J]
Output:Meter:Cumulative,InteriorLights:Electricity:Zone:DU_BT=SPACE FUNCTION_ST=DWELLING UNITS GENERAL_FL=BUILDING STORY 4_SCHG 1,hourly; !- [J]
Output:Meter,Electricity:Zone:DU_BT=SPACE FUNCTION_ST=DWELLING UNITS GENERAL_FL=BUILDING STORY 4_SCHG 2,hourly; !- [J]
Output:Meter:Cumulative,Electricity:Zone:DU_BT=SPACE FUNCTION_ST=DWELLING UNITS GENERAL_FL=BUILDING STORY 4_SCHG 2,hourly; !- [J]
Output:Meter,InteriorLights:Electricity:Zone:DU_BT=SPACE FUNCTION_ST=DWELLING UNITS GENERAL_FL=BUILDING STORY 4_SCHG 2,hourly; !- [J]
Output:Meter:Cumulative,InteriorLights:Electricity:Zone:DU_BT=SPACE FUNCTION_ST=DWELLING UNITS GENERAL_FL=BUILDING STORY 4_SCHG 2,hourly; !- [J]
Output:Meter,Electricity:Zone:DU_BT=SPACE FUNCTION_ST=DWELLING UNITS GENERAL_FL=BUILDING STORY 4_SCHG 3,hourly; !- [J]
Output:Meter:Cumulative,Electricity:Zone:DU_BT=SPACE FUNCTION_ST=DWELLING UNITS GENERAL_FL=BUILDING STORY 4_SCHG 3,hourly; !- [J]
Output:Meter,InteriorLights:Electricity:Zone:DU_BT=SPACE FUNCTION_ST=DWELLING UNITS GENERAL_FL=BUILDING STORY 4_SCHG 3,hourly; !- [J]
Output:Meter:Cumulative,InteriorLights:Electricity:Zone:DU_BT=SPACE FUNCTION_ST=DWELLING UNITS GENERAL_FL=BUILDING STORY 4_SCHG 3,hourly; !- [J]
Output:Meter,Electricity:Zone:DU_BT=SPACE FUNCTION_ST=DWELLING UNITS GENERAL_FL=BUILDING STORY 4_SCHG 4,hourly; !- [J]
Output:Meter:Cumulative,Electricity:Zone:DU_BT=SPACE FUNCTION_ST=DWELLING UNITS GENERAL_FL=BUILDING STORY 4_SCHG 4,hourly; !- [J]
Output:Meter,InteriorLights:Electricity:Zone:DU_BT=SPACE FUNCTION_ST=DWELLING UNITS GENERAL_FL=BUILDING STORY 4_SCHG 4,hourly; !- [J]
Output:Meter:Cumulative,InteriorLights:Electricity:Zone:DU_BT=SPACE FUNCTION_ST=DWELLING UNITS GENERAL_FL=BUILDING STORY 4_SCHG 4,hourly; !- [J]
Output:Meter,Electricity:Zone:DU_BT=SPACE FUNCTION_ST=DWELLING UNITS GENERAL_FL=BUILDING STORY 4_SCHG 5,hourly; !- [J]
Output:Meter:Cumulative,Electricity:Zone:DU_BT=SPACE FUNCTION_ST=DWELLING UNITS GENERAL_FL=BUILDING STORY 4_SCHG 5,hourly; !- [J]
Output:Meter,InteriorLights:Electricity:Zone:DU_BT=SPACE FUNCTION_ST=DWELLING UNITS GENERAL_FL=BUILDING STORY 4_SCHG 5,hourly; !- [J]
Output:Meter:Cumulative,InteriorLights:Electricity:Zone:DU_BT=SPACE FUNCTION_ST=DWELLING UNITS GENERAL_FL=BUILDING STORY 4_SCHG 5,hourly; !- [J]
Output:Meter,Electricity:Zone:DU_BT=SPACE FUNCTION_ST=DWELLING UNITS GENERAL_FL=BUILDING STORY 4_SCHG 6,hourly; !- [J]
Output:Meter:Cumulative,Electricity:Zone:DU_BT=SPACE FUNCTION_ST=DWELLING UNITS GENERAL_FL=BUILDING STORY 4_SCHG 6,hourly; !- [J]
Output:Meter,InteriorLights:Electricity:Zone:DU_BT=SPACE FUNCTION_ST=DWELLING UNITS GENERAL_FL=BUILDING STORY 4_SCHG 6,hourly; !- [J]
Output:Meter:Cumulative,InteriorLights:Electricity:Zone:DU_BT=SPACE FUNCTION_ST=DWELLING UNITS GENERAL_FL=BUILDING STORY 4_SCHG 6,hourly; !- [J]
Output:Meter,Electricity:Zone:DU_BT=SPACE FUNCTION_ST=DWELLING UNITS GENERAL_FL=BUILDING STORY 4_SCHG 7,hourly; !- [J]
Output:Meter:Cumulative,Electricity:Zone:DU_BT=SPACE FUNCTION_ST=DWELLING UNITS GENERAL_FL=BUILDING STORY 4_SCHG 7,hourly; !- [J]
Output:Meter,InteriorLights:Electricity:Zone:DU_BT=SPACE FUNCTION_ST=DWELLING UNITS GENERAL_FL=BUILDING STORY 4_SCHG 7,hourly; !- [J]
Output:Meter:Cumulative,InteriorLights:Electricity:Zone:DU_BT=SPACE FUNCTION_ST=DWELLING UNITS GENERAL_FL=BUILDING STORY 4_SCHG 7,hourly; !- [J]
Output:Meter,Electricity:Zone:DU_BT=SPACE FUNCTION_ST=DWELLING UNITS GENERAL_FL=BUILDING STORY 5_SCHG,hourly; !- [J]
Output:Meter:Cumulative,Electricity:Zone:DU_BT=SPACE FUNCTION_ST=DWELLING UNITS GENERAL_FL=BUILDING STORY 5_SCHG,hourly; !- [J]
Output:Meter,InteriorLights:Electricity:Zone:DU_BT=SPACE FUNCTION_ST=DWELLING UNITS GENERAL_FL=BUILDING STORY 5_SCHG,hourly; !- [J]
Output:Meter:Cumulative,InteriorLights:Electricity:Zone:DU_BT=SPACE FUNCTION_ST=DWELLING UNITS GENERAL_FL=BUILDING STORY 5_SCHG,hourly; !- [J]
Output:Meter,Electricity:Zone:DU_BT=SPACE FUNCTION_ST=DWELLING UNITS GENERAL_FL=BUILDING STORY 5_SCHG 1,hourly; !- [J]
Output:Meter:Cumulative,Electricity:Zone:DU_BT=SPACE FUNCTION_ST=DWELLING UNITS GENERAL_FL=BUILDING STORY 5_SCHG 1,hourly; !- [J]
Output:Meter,InteriorLights:Electricity:Zone:DU_BT=SPACE FUNCTION_ST=DWELLING UNITS GENERAL_FL=BUILDING STORY 5_SCHG 1,hourly; !- [J]
Output:Meter:Cumulative,InteriorLights:Electricity:Zone:DU_BT=SPACE FUNCTION_ST=DWELLING UNITS GENERAL_FL=BUILDING STORY 5_SCHG 1,hourly; !- [J]
Output:Meter,Electricity:Zone:DU_BT=SPACE FUNCTION_ST=DWELLING UNITS GENERAL_FL=BUILDING STORY 5_SCHG 2,hourly; !- [J]
Output:Meter:Cumulative,Electricity:Zone:DU_BT=SPACE FUNCTION_ST=DWELLING UNITS GENERAL_FL=BUILDING STORY 5_SCHG 2,hourly; !- [J]
Output:Meter,InteriorLights:Electricity:Zone:DU_BT=SPACE FUNCTION_ST=DWELLING UNITS GENERAL_FL=BUILDING STORY 5_SCHG 2,hourly; !- [J]
Output:Meter:Cumulative,InteriorLights:Electricity:Zone:DU_BT=SPACE FUNCTION_ST=DWELLING UNITS GENERAL_FL=BUILDING STORY 5_SCHG 2,hourly; !- [J]
Output:Meter,Electricity:Zone:DU_BT=SPACE FUNCTION_ST=DWELLING UNITS GENERAL_FL=BUILDING STORY 5_SCHG 3,hourly; !- [J]
Output:Meter:Cumulative,Electricity:Zone:DU_BT=SPACE FUNCTION_ST=DWELLING UNITS GENERAL_FL=BUILDING STORY 5_SCHG 3,hourly; !- [J]
Output:Meter,InteriorLights:Electricity:Zone:DU_BT=SPACE FUNCTION_ST=DWELLING UNITS GENERAL_FL=BUILDING STORY 5_SCHG 3,hourly; !- [J]
Output:Meter:Cumulative,InteriorLights:Electricity:Zone:DU_BT=SPACE FUNCTION_ST=DWELLING UNITS GENERAL_FL=BUILDING STORY 5_SCHG 3,hourly; !- [J]
Output:Meter,Electricity:Zone:DU_BT=SPACE FUNCTION_ST=DWELLING UNITS GENERAL_FL=BUILDING STORY 5_SCHG 4,hourly; !- [J]
Output:Meter:Cumulative,Electricity:Zone:DU_BT=SPACE FUNCTION_ST=DWELLING UNITS GENERAL_FL=BUILDING STORY 5_SCHG 4,hourly; !- [J]
Output:Meter,InteriorLights:Electricity:Zone:DU_BT=SPACE FUNCTION_ST=DWELLING UNITS GENERAL_FL=BUILDING STORY 5_SCHG 4,hourly; !- [J]
Output:Meter:Cumulative,InteriorLights:Electricity:Zone:DU_BT=SPACE FUNCTION_ST=DWELLING UNITS GENERAL_FL=BUILDING STORY 5_SCHG 4,hourly; !- [J]
Output:Meter,Electricity:Zone:DU_BT=SPACE FUNCTION_ST=DWELLING UNITS GENERAL_FL=BUILDING STORY 5_SCHG 5,hourly; !- [J]
Output:Meter:Cumulative,Electricity:Zone:DU_BT=SPACE FUNCTION_ST=DWELLING UNITS GENERAL_FL=BUILDING STORY 5_SCHG 5,hourly; !- [J]
Output:Meter,InteriorLights:Electricity:Zone:DU_BT=SPACE FUNCTION_ST=DWELLING UNITS GENERAL_FL=BUILDING STORY 5_SCHG 5,hourly; !- [J]
Output:Meter:Cumulative,InteriorLights:Electricity:Zone:DU_BT=SPACE FUNCTION_ST=DWELLING UNITS GENERAL_FL=BUILDING STORY 5_SCHG 5,hourly; !- [J]
Output:Meter,Electricity:Zone:DU_BT=SPACE FUNCTION_ST=DWELLING UNITS GENERAL_FL=BUILDING STORY 5_SCHG 6,hourly; !- [J]
Output:Meter:Cumulative,Electricity:Zone:DU_BT=SPACE FUNCTION_ST=DWELLING UNITS GENERAL_FL=BUILDING STORY 5_SCHG 6,hourly; !- [J]
Output:Meter,InteriorLights:Electricity:Zone:DU_BT=SPACE FUNCTION_ST=DWELLING UNITS GENERAL_FL=BUILDING STORY 5_SCHG 6,hourly; !- [J]
Output:Meter:Cumulative,InteriorLights:Electricity:Zone:DU_BT=SPACE FUNCTION_ST=DWELLING UNITS GENERAL_FL=BUILDING STORY 5_SCHG 6,hourly; !- [J]
Output:Meter,Electricity:Zone:DU_BT=SPACE FUNCTION_ST=DWELLING UNITS GENERAL_FL=BUILDING STORY 5_SCHG 7,hourly; !- [J]
Output:Meter:Cumulative,Electricity:Zone:DU_BT=SPACE FUNCTION_ST=DWELLING UNITS GENERAL_FL=BUILDING STORY 5_SCHG 7,hourly; !- [J]
Output:Meter,InteriorLights:Electricity:Zone:DU_BT=SPACE FUNCTION_ST=DWELLING UNITS GENERAL_FL=BUILDING STORY 5_SCHG 7,hourly; !- [J]
Output:Meter:Cumulative,InteriorLights:Electricity:Zone:DU_BT=SPACE FUNCTION_ST=DWELLING UNITS GENERAL_FL=BUILDING STORY 5_SCHG 7,hourly; !- [J]
Output:Meter,Electricity:Zone:DU_BT=SPACE FUNCTION_ST=DWELLING UNITS GENERAL_FL=BUILDING STORY 6_SCHG,hourly; !- [J]
Output:Meter:Cumulative,Electricity:Zone:DU_BT=SPACE FUNCTION_ST=DWELLING UNITS GENERAL_FL=BUILDING STORY 6_SCHG,hourly; !- [J]
Output:Meter,InteriorLights:Electricity:Zone:DU_BT=SPACE FUNCTION_ST=DWELLING UNITS GENERAL_FL=BUILDING STORY 6_SCHG,hourly; !- [J]
Output:Meter:Cumulative,InteriorLights:Electricity:Zone:DU_BT=SPACE FUNCTION_ST=DWELLING UNITS GENERAL_FL=BUILDING STORY 6_SCHG,hourly; !- [J]
Output:Meter,Electricity:Zone:DU_BT=SPACE FUNCTION_ST=DWELLING UNITS GENERAL_FL=BUILDING STORY 6_SCHG 1,hourly; !- [J]
Output:Meter:Cumulative,Electricity:Zone:DU_BT=SPACE FUNCTION_ST=DWELLING UNITS GENERAL_FL=BUILDING STORY 6_SCHG 1,hourly; !- [J]
Output:Meter,InteriorLights:Electricity:Zone:DU_BT=SPACE FUNCTION_ST=DWELLING UNITS GENERAL_FL=BUILDING STORY 6_SCHG 1,hourly; !- [J]
Output:Meter:Cumulative,InteriorLights:Electricity:Zone:DU_BT=SPACE FUNCTION_ST=DWELLING UNITS GENERAL_FL=BUILDING STORY 6_SCHG 1,hourly; !- [J]
Output:Meter,Electricity:Zone:DU_BT=SPACE FUNCTION_ST=DWELLING UNITS GENERAL_FL=BUILDING STORY 6_SCHG 2,hourly; !- [J]
Output:Meter:Cumulative,Electricity:Zone:DU_BT=SPACE FUNCTION_ST=DWELLING UNITS GENERAL_FL=BUILDING STORY 6_SCHG 2,hourly; !- [J]
Output:Meter,InteriorLights:Electricity:Zone:DU_BT=SPACE FUNCTION_ST=DWELLING UNITS GENERAL_FL=BUILDING STORY 6_SCHG 2,hourly; !- [J]
Output:Meter:Cumulative,InteriorLights:Electricity:Zone:DU_BT=SPACE FUNCTION_ST=DWELLING UNITS GENERAL_FL=BUILDING STORY 6_SCHG 2,hourly; !- [J]
Output:Meter,Electricity:Zone:DU_BT=SPACE FUNCTION_ST=DWELLING UNITS GENERAL_FL=BUILDING STORY 6_SCHG 3,hourly; !- [J]
Output:Meter:Cumulative,Electricity:Zone:DU_BT=SPACE FUNCTION_ST=DWELLING UNITS GENERAL_FL=BUILDING STORY 6_SCHG 3,hourly; !- [J]
Output:Meter,InteriorLights:Electricity:Zone:DU_BT=SPACE FUNCTION_ST=DWELLING UNITS GENERAL_FL=BUILDING STORY 6_SCHG 3,hourly; !- [J]
Output:Meter:Cumulative,InteriorLights:Electricity:Zone:DU_BT=SPACE FUNCTION_ST=DWELLING UNITS GENERAL_FL=BUILDING STORY 6_SCHG 3,hourly; !- [J]
Output:Meter,Electricity:Zone:DU_BT=SPACE FUNCTION_ST=DWELLING UNITS GENERAL_FL=BUILDING STORY 6_SCHG 4,hourly; !- [J]
Output:Meter:Cumulative,Electricity:Zone:DU_BT=SPACE FUNCTION_ST=DWELLING UNITS GENERAL_FL=BUILDING STORY 6_SCHG 4,hourly; !- [J]
Output:Meter,InteriorLights:Electricity:Zone:DU_BT=SPACE FUNCTION_ST=DWELLING UNITS GENERAL_FL=BUILDING STORY 6_SCHG 4,hourly; !- [J]
Output:Meter:Cumulative,InteriorLights:Electricity:Zone:DU_BT=SPACE FUNCTION_ST=DWELLING UNITS GENERAL_FL=BUILDING STORY 6_SCHG 4,hourly; !- [J]
Output:Meter,Electricity:Zone:DU_BT=SPACE FUNCTION_ST=DWELLING UNITS GENERAL_FL=BUILDING STORY 6_SCHG 5,hourly; !- [J]
Output:Meter:Cumulative,Electricity:Zone:DU_BT=SPACE FUNCTION_ST=DWELLING UNITS GENERAL_FL=BUILDING STORY 6_SCHG 5,hourly; !- [J]
Output:Meter,InteriorLights:Electricity:Zone:DU_BT=SPACE FUNCTION_ST=DWELLING UNITS GENERAL_FL=BUILDING STORY 6_SCHG 5,hourly; !- [J]
Output:Meter:Cumulative,InteriorLights:Electricity:Zone:DU_BT=SPACE FUNCTION_ST=DWELLING UNITS GENERAL_FL=BUILDING STORY 6_SCHG 5,hourly; !- [J]
Output:Meter,Electricity:Zone:DU_BT=SPACE FUNCTION_ST=DWELLING UNITS GENERAL_FL=BUILDING STORY 6_SCHG 6,hourly; !- [J]
Output:Meter:Cumulative,Electricity:Zone:DU_BT=SPACE FUNCTION_ST=DWELLING UNITS GENERAL_FL=BUILDING STORY 6_SCHG 6,hourly; !- [J]
Output:Meter,InteriorLights:Electricity:Zone:DU_BT=SPACE FUNCTION_ST=DWELLING UNITS GENERAL_FL=BUILDING STORY 6_SCHG 6,hourly; !- [J]
Output:Meter:Cumulative,InteriorLights:Electricity:Zone:DU_BT=SPACE FUNCTION_ST=DWELLING UNITS GENERAL_FL=BUILDING STORY 6_SCHG 6,hourly; !- [J]
Output:Meter,Electricity:Zone:DU_BT=SPACE FUNCTION_ST=DWELLING UNITS GENERAL_FL=BUILDING STORY 6_SCHG 7,hourly; !- [J]
Output:Meter:Cumulative,Electricity:Zone:DU_BT=SPACE FUNCTION_ST=DWELLING UNITS GENERAL_FL=BUILDING STORY 6_SCHG 7,hourly; !- [J]
Output:Meter,InteriorLights:Electricity:Zone:DU_BT=SPACE FUNCTION_ST=DWELLING UNITS GENERAL_FL=BUILDING STORY 6_SCHG 7,hourly; !- [J]
Output:Meter:Cumulative,InteriorLights:Electricity:Zone:DU_BT=SPACE FUNCTION_ST=DWELLING UNITS GENERAL_FL=BUILDING STORY 6_SCHG 7,hourly; !- [J]
Output:Meter,Electricity:Zone:DU_BT=SPACE FUNCTION_ST=DWELLING UNITS GENERAL_FL=BUILDING STORY 7_SCHG,hourly; !- [J]
Output:Meter:Cumulative,Electricity:Zone:DU_BT=SPACE FUNCTION_ST=DWELLING UNITS GENERAL_FL=BUILDING STORY 7_SCHG,hourly; !- [J]
Output:Meter,InteriorLights:Electricity:Zone:DU_BT=SPACE FUNCTION_ST=DWELLING UNITS GENERAL_FL=BUILDING STORY 7_SCHG,hourly; !- [J]
Output:Meter:Cumulative,InteriorLights:Electricity:Zone:DU_BT=SPACE FUNCTION_ST=DWELLING UNITS GENERAL_FL=BUILDING STORY 7_SCHG,hourly; !- [J]
Output:Meter,Electricity:Zone:DU_BT=SPACE FUNCTION_ST=DWELLING UNITS GENERAL_FL=BUILDING STORY 7_SCHG 1,hourly; !- [J]
Output:Meter:Cumulative,Electricity:Zone:DU_BT=SPACE FUNCTION_ST=DWELLING UNITS GENERAL_FL=BUILDING STORY 7_SCHG 1,hourly; !- [J]
Output:Meter,InteriorLights:Electricity:Zone:DU_BT=SPACE FUNCTION_ST=DWELLING UNITS GENERAL_FL=BUILDING STORY 7_SCHG 1,hourly; !- [J]
Output:Meter:Cumulative,InteriorLights:Electricity:Zone:DU_BT=SPACE FUNCTION_ST=DWELLING UNITS GENERAL_FL=BUILDING STORY 7_SCHG 1,hourly; !- [J]
Output:Meter,Electricity:Zone:DU_BT=SPACE FUNCTION_ST=DWELLING UNITS GENERAL_FL=BUILDING STORY 7_SCHG 2,hourly; !- [J]
Output:Meter:Cumulative,Electricity:Zone:DU_BT=SPACE FUNCTION_ST=DWELLING UNITS GENERAL_FL=BUILDING STORY 7_SCHG 2,hourly; !- [J]
Output:Meter,InteriorLights:Electricity:Zone:DU_BT=SPACE FUNCTION_ST=DWELLING UNITS GENERAL_FL=BUILDING STORY 7_SCHG 2,hourly; !- [J]
Output:Meter:Cumulative,InteriorLights:Electricity:Zone:DU_BT=SPACE FUNCTION_ST=DWELLING UNITS GENERAL_FL=BUILDING STORY 7_SCHG 2,hourly; !- [J]
Output:Meter,Electricity:Zone:DU_BT=SPACE FUNCTION_ST=DWELLING UNITS GENERAL_FL=BUILDING STORY 7_SCHG 3,hourly; !- [J]
Output:Meter:Cumulative,Electricity:Zone:DU_BT=SPACE FUNCTION_ST=DWELLING UNITS GENERAL_FL=BUILDING STORY 7_SCHG 3,hourly; !- [J]
Output:Meter,InteriorLights:Electricity:Zone:DU_BT=SPACE FUNCTION_ST=DWELLING UNITS GENERAL_FL=BUILDING STORY 7_SCHG 3,hourly; !- [J]
Output:Meter:Cumulative,InteriorLights:Electricity:Zone:DU_BT=SPACE FUNCTION_ST=DWELLING UNITS GENERAL_FL=BUILDING STORY 7_SCHG 3,hourly; !- [J]
Output:Meter,Electricity:Zone:DU_BT=SPACE FUNCTION_ST=DWELLING UNITS GENERAL_FL=BUILDING STORY 7_SCHG 4,hourly; !- [J]
Output:Meter:Cumulative,Electricity:Zone:DU_BT=SPACE FUNCTION_ST=DWELLING UNITS GENERAL_FL=BUILDING STORY 7_SCHG 4,hourly; !- [J]
Output:Meter,InteriorLights:Electricity:Zone:DU_BT=SPACE FUNCTION_ST=DWELLING UNITS GENERAL_FL=BUILDING STORY 7_SCHG 4,hourly; !- [J]
Output:Meter:Cumulative,InteriorLights:Electricity:Zone:DU_BT=SPACE FUNCTION_ST=DWELLING UNITS GENERAL_FL=BUILDING STORY 7_SCHG 4,hourly; !- [J]
Output:Meter,Electricity:Zone:DU_BT=SPACE FUNCTION_ST=DWELLING UNITS GENERAL_FL=BUILDING STORY 7_SCHG 5,hourly; !- [J]
Output:Meter:Cumulative,Electricity:Zone:DU_BT=SPACE FUNCTION_ST=DWELLING UNITS GENERAL_FL=BUILDING STORY 7_SCHG 5,hourly; !- [J]
Output:Meter,InteriorLights:Electricity:Zone:DU_BT=SPACE FUNCTION_ST=DWELLING UNITS GENERAL_FL=BUILDING STORY 7_SCHG 5,hourly; !- [J]
Output:Meter:Cumulative,InteriorLights:Electricity:Zone:DU_BT=SPACE FUNCTION_ST=DWELLING UNITS GENERAL_FL=BUILDING STORY 7_SCHG 5,hourly; !- [J]
Output:Meter,Electricity:Zone:DU_BT=SPACE FUNCTION_ST=DWELLING UNITS GENERAL_FL=BUILDING STORY 7_SCHG 6,hourly; !- [J]
Output:Meter:Cumulative,Electricity:Zone:DU_BT=SPACE FUNCTION_ST=DWELLING UNITS GENERAL_FL=BUILDING STORY 7_SCHG 6,hourly; !- [J]
Output:Meter,InteriorLights:Electricity:Zone:DU_BT=SPACE FUNCTION_ST=DWELLING UNITS GENERAL_FL=BUILDING STORY 7_SCHG 6,hourly; !- [J]
Output:Meter:Cumulative,InteriorLights:Electricity:Zone:DU_BT=SPACE FUNCTION_ST=DWELLING UNITS GENERAL_FL=BUILDING STORY 7_SCHG 6,hourly; !- [J]
Output:Meter,Electricity:Zone:DU_BT=SPACE FUNCTION_ST=DWELLING UNITS GENERAL_FL=BUILDING STORY 7_SCHG 7,hourly; !- [J]
Output:Meter:Cumulative,Electricity:Zone:DU_BT=SPACE FUNCTION_ST=DWELLING UNITS GENERAL_FL=BUILDING STORY 7_SCHG 7,hourly; !- [J]
Output:Meter,InteriorLights:Electricity:Zone:DU_BT=SPACE FUNCTION_ST=DWELLING UNITS GENERAL_FL=BUILDING STORY 7_SCHG 7,hourly; !- [J]
Output:Meter:Cumulative,InteriorLights:Electricity:Zone:DU_BT=SPACE FUNCTION_ST=DWELLING UNITS GENERAL_FL=BUILDING STORY 7_SCHG 7,hourly; !- [J]
Output:Meter,Electricity:Zone:DU_BT=SPACE FUNCTION_ST=DWELLING UNITS GENERAL_FL=BUILDING STORY 8_SCHG,hourly; !- [J]
Output:Meter:Cumulative,Electricity:Zone:DU_BT=SPACE FUNCTION_ST=DWELLING UNITS GENERAL_FL=BUILDING STORY 8_SCHG,hourly; !- [J]
Output:Meter,InteriorLights:Electricity:Zone:DU_BT=SPACE FUNCTION_ST=DWELLING UNITS GENERAL_FL=BUILDING STORY 8_SCHG,hourly; !- [J]
Output:Meter:Cumulative,InteriorLights:Electricity:Zone:DU_BT=SPACE FUNCTION_ST=DWELLING UNITS GENERAL_FL=BUILDING STORY 8_SCHG,hourly; !- [J]
Output:Meter,Electricity:Zone:DU_BT=SPACE FUNCTION_ST=DWELLING UNITS GENERAL_FL=BUILDING STORY 8_SCHG 1,hourly; !- [J]
Output:Meter:Cumulative,Electricity:Zone:DU_BT=SPACE FUNCTION_ST=DWELLING UNITS GENERAL_FL=BUILDING STORY 8_SCHG 1,hourly; !- [J]
Output:Meter,InteriorLights:Electricity:Zone:DU_BT=SPACE FUNCTION_ST=DWELLING UNITS GENERAL_FL=BUILDING STORY 8_SCHG 1,hourly; !- [J]
Output:Meter:Cumulative,InteriorLights:Electricity:Zone:DU_BT=SPACE FUNCTION_ST=DWELLING UNITS GENERAL_FL=BUILDING STORY 8_SCHG 1,hourly; !- [J]
Output:Meter,Electricity:Zone:DU_BT=SPACE FUNCTION_ST=DWELLING UNITS GENERAL_FL=BUILDING STORY 8_SCHG 2,hourly; !- [J]
Output:Meter:Cumulative,Electricity:Zone:DU_BT=SPACE FUNCTION_ST=DWELLING UNITS GENERAL_FL=BUILDING STORY 8_SCHG 2,hourly; !- [J]
Output:Meter,InteriorLights:Electricity:Zone:DU_BT=SPACE FUNCTION_ST=DWELLING UNITS GENERAL_FL=BUILDING STORY 8_SCHG 2,hourly; !- [J]
Output:Meter:Cumulative,InteriorLights:Electricity:Zone:DU_BT=SPACE FUNCTION_ST=DWELLING UNITS GENERAL_FL=BUILDING STORY 8_SCHG 2,hourly; !- [J]
Output:Meter,Electricity:Zone:DU_BT=SPACE FUNCTION_ST=DWELLING UNITS GENERAL_FL=BUILDING STORY 8_SCHG 3,hourly; !- [J]
Output:Meter:Cumulative,Electricity:Zone:DU_BT=SPACE FUNCTION_ST=DWELLING UNITS GENERAL_FL=BUILDING STORY 8_SCHG 3,hourly; !- [J]
Output:Meter,InteriorLights:Electricity:Zone:DU_BT=SPACE FUNCTION_ST=DWELLING UNITS GENERAL_FL=BUILDING STORY 8_SCHG 3,hourly; !- [J]
Output:Meter:Cumulative,InteriorLights:Electricity:Zone:DU_BT=SPACE FUNCTION_ST=DWELLING UNITS GENERAL_FL=BUILDING STORY 8_SCHG 3,hourly; !- [J]
Output:Meter,Electricity:Zone:DU_BT=SPACE FUNCTION_ST=DWELLING UNITS GENERAL_FL=BUILDING STORY 8_SCHG 4,hourly; !- [J]
Output:Meter:Cumulative,Electricity:Zone:DU_BT=SPACE FUNCTION_ST=DWELLING UNITS GENERAL_FL=BUILDING STORY 8_SCHG 4,hourly; !- [J]
Output:Meter,InteriorLights:Electricity:Zone:DU_BT=SPACE FUNCTION_ST=DWELLING UNITS GENERAL_FL=BUILDING STORY 8_SCHG 4,hourly; !- [J]
Output:Meter:Cumulative,InteriorLights:Electricity:Zone:DU_BT=SPACE FUNCTION_ST=DWELLING UNITS GENERAL_FL=BUILDING STORY 8_SCHG 4,hourly; !- [J]
Output:Meter,Electricity:Zone:DU_BT=SPACE FUNCTION_ST=DWELLING UNITS GENERAL_FL=BUILDING STORY 8_SCHG 5,hourly; !- [J]
Output:Meter:Cumulative,Electricity:Zone:DU_BT=SPACE FUNCTION_ST=DWELLING UNITS GENERAL_FL=BUILDING STORY 8_SCHG 5,hourly; !- [J]
Output:Meter,InteriorLights:Electricity:Zone:DU_BT=SPACE FUNCTION_ST=DWELLING UNITS GENERAL_FL=BUILDING STORY 8_SCHG 5,hourly; !- [J]
Output:Meter:Cumulative,InteriorLights:Electricity:Zone:DU_BT=SPACE FUNCTION_ST=DWELLING UNITS GENERAL_FL=BUILDING STORY 8_SCHG 5,hourly; !- [J]
Output:Meter,Electricity:Zone:DU_BT=SPACE FUNCTION_ST=DWELLING UNITS GENERAL_FL=BUILDING STORY 8_SCHG 6,hourly; !- [J]
Output:Meter:Cumulative,Electricity:Zone:DU_BT=SPACE FUNCTION_ST=DWELLING UNITS GENERAL_FL=BUILDING STORY 8_SCHG 6,hourly; !- [J]
Output:Meter,InteriorLights:Electricity:Zone:DU_BT=SPACE FUNCTION_ST=DWELLING UNITS GENERAL_FL=BUILDING STORY 8_SCHG 6,hourly; !- [J]
Output:Meter:Cumulative,InteriorLights:Electricity:Zone:DU_BT=SPACE FUNCTION_ST=DWELLING UNITS GENERAL_FL=BUILDING STORY 8_SCHG 6,hourly; !- [J]
Output:Meter,Electricity:Zone:DU_BT=SPACE FUNCTION_ST=DWELLING UNITS GENERAL_FL=BUILDING STORY 8_SCHG 7,hourly; !- [J]
Output:Meter:Cumulative,Electricity:Zone:DU_BT=SPACE FUNCTION_ST=DWELLING UNITS GENERAL_FL=BUILDING STORY 8_SCHG 7,hourly; !- [J]
Output:Meter,InteriorLights:Electricity:Zone:DU_BT=SPACE FUNCTION_ST=DWELLING UNITS GENERAL_FL=BUILDING STORY 8_SCHG 7,hourly; !- [J]
Output:Meter:Cumulative,InteriorLights:Electricity:Zone:DU_BT=SPACE FUNCTION_ST=DWELLING UNITS GENERAL_FL=BUILDING STORY 8_SCHG 7,hourly; !- [J]
Output:Meter,Electricity:Zone:DU_BT=SPACE FUNCTION_ST=DWELLING UNITS GENERAL_FL=BUILDING STORY 9_SCHG,hourly; !- [J]
Output:Meter:Cumulative,Electricity:Zone:DU_BT=SPACE FUNCTION_ST=DWELLING UNITS GENERAL_FL=BUILDING STORY 9_SCHG,hourly; !- [J]
Output:Meter,InteriorLights:Electricity:Zone:DU_BT=SPACE FUNCTION_ST=DWELLING UNITS GENERAL_FL=BUILDING STORY 9_SCHG,hourly; !- [J]
Output:Meter:Cumulative,InteriorLights:Electricity:Zone:DU_BT=SPACE FUNCTION_ST=DWELLING UNITS GENERAL_FL=BUILDING STORY 9_SCHG,hourly; !- [J]
Output:Meter,Electricity:Zone:DU_BT=SPACE FUNCTION_ST=DWELLING UNITS GENERAL_FL=BUILDING STORY 9_SCHG 1,hourly; !- [J]
Output:Meter:Cumulative,Electricity:Zone:DU_BT=SPACE FUNCTION_ST=DWELLING UNITS GENERAL_FL=BUILDING STORY 9_SCHG 1,hourly; !- [J]
Output:Meter,InteriorLights:Electricity:Zone:DU_BT=SPACE FUNCTION_ST=DWELLING UNITS GENERAL_FL=BUILDING STORY 9_SCHG 1,hourly; !- [J]
Output:Meter:Cumulative,InteriorLights:Electricity:Zone:DU_BT=SPACE FUNCTION_ST=DWELLING UNITS GENERAL_FL=BUILDING STORY 9_SCHG 1,hourly; !- [J]
Output:Meter,Electricity:Zone:DU_BT=SPACE FUNCTION_ST=DWELLING UNITS GENERAL_FL=BUILDING STORY 9_SCHG 2,hourly; !- [J]
Output:Meter:Cumulative,Electricity:Zone:DU_BT=SPACE FUNCTION_ST=DWELLING UNITS GENERAL_FL=BUILDING STORY 9_SCHG 2,hourly; !- [J]
Output:Meter,InteriorLights:Electricity:Zone:DU_BT=SPACE FUNCTION_ST=DWELLING UNITS GENERAL_FL=BUILDING STORY 9_SCHG 2,hourly; !- [J]
Output:Meter:Cumulative,InteriorLights:Electricity:Zone:DU_BT=SPACE FUNCTION_ST=DWELLING UNITS GENERAL_FL=BUILDING STORY 9_SCHG 2,hourly; !- [J]
Output:Meter,Electricity:Zone:DU_BT=SPACE FUNCTION_ST=DWELLING UNITS GENERAL_FL=BUILDING STORY 9_SCHG 3,hourly; !- [J]
Output:Meter:Cumulative,Electricity:Zone:DU_BT=SPACE FUNCTION_ST=DWELLING UNITS GENERAL_FL=BUILDING STORY 9_SCHG 3,hourly; !- [J]
Output:Meter,InteriorLights:Electricity:Zone:DU_BT=SPACE FUNCTION_ST=DWELLING UNITS GENERAL_FL=BUILDING STORY 9_SCHG 3,hourly; !- [J]
Output:Meter:Cumulative,InteriorLights:Electricity:Zone:DU_BT=SPACE FUNCTION_ST=DWELLING UNITS GENERAL_FL=BUILDING STORY 9_SCHG 3,hourly; !- [J]
Output:Meter,Electricity:Zone:DU_BT=SPACE FUNCTION_ST=DWELLING UNITS GENERAL_FL=BUILDING STORY 9_SCHG 4,hourly; !- [J]
Output:Meter:Cumulative,Electricity:Zone:DU_BT=SPACE FUNCTION_ST=DWELLING UNITS GENERAL_FL=BUILDING STORY 9_SCHG 4,hourly; !- [J]
Output:Meter,InteriorLights:Electricity:Zone:DU_BT=SPACE FUNCTION_ST=DWELLING UNITS GENERAL_FL=BUILDING STORY 9_SCHG 4,hourly; !- [J]
Output:Meter:Cumulative,InteriorLights:Electricity:Zone:DU_BT=SPACE FUNCTION_ST=DWELLING UNITS GENERAL_FL=BUILDING STORY 9_SCHG 4,hourly; !- [J]
Output:Meter,Electricity:Zone:DU_BT=SPACE FUNCTION_ST=DWELLING UNITS GENERAL_FL=BUILDING STORY 9_SCHG 5,hourly; !- [J]
Output:Meter:Cumulative,Electricity:Zone:DU_BT=SPACE FUNCTION_ST=DWELLING UNITS GENERAL_FL=BUILDING STORY 9_SCHG 5,hourly; !- [J]
Output:Meter,InteriorLights:Electricity:Zone:DU_BT=SPACE FUNCTION_ST=DWELLING UNITS GENERAL_FL=BUILDING STORY 9_SCHG 5,hourly; !- [J]
Output:Meter:Cumulative,InteriorLights:Electricity:Zone:DU_BT=SPACE FUNCTION_ST=DWELLING UNITS GENERAL_FL=BUILDING STORY 9_SCHG 5,hourly; !- [J]
Output:Meter,Electricity:Zone:DU_BT=SPACE FUNCTION_ST=DWELLING UNITS GENERAL_FL=BUILDING STORY 9_SCHG 6,hourly; !- [J]
Output:Meter:Cumulative,Electricity:Zone:DU_BT=SPACE FUNCTION_ST=DWELLING UNITS GENERAL_FL=BUILDING STORY 9_SCHG 6,hourly; !- [J]
Output:Meter,InteriorLights:Electricity:Zone:DU_BT=SPACE FUNCTION_ST=DWELLING UNITS GENERAL_FL=BUILDING STORY 9_SCHG 6,hourly; !- [J]
Output:Meter:Cumulative,InteriorLights:Electricity:Zone:DU_BT=SPACE FUNCTION_ST=DWELLING UNITS GENERAL_FL=BUILDING STORY 9_SCHG 6,hourly; !- [J]
Output:Meter,Electricity:Zone:DU_BT=SPACE FUNCTION_ST=DWELLING UNITS GENERAL_FL=BUILDING STORY 9_SCHG 7,hourly; !- [J]
Output:Meter:Cumulative,Electricity:Zone:DU_BT=SPACE FUNCTION_ST=DWELLING UNITS GENERAL_FL=BUILDING STORY 9_SCHG 7,hourly; !- [J]
Output:Meter,InteriorLights:Electricity:Zone:DU_BT=SPACE FUNCTION_ST=DWELLING UNITS GENERAL_FL=BUILDING STORY 9_SCHG 7,hourly; !- [J]
Output:Meter:Cumulative,InteriorLights:Electricity:Zone:DU_BT=SPACE FUNCTION_ST=DWELLING UNITS GENERAL_FL=BUILDING STORY 9_SCHG 7,hourly; !- [J]
Output:Meter,Electricity:Zone:ALL_ST=OFFICE ENCLOSED <= 25 M2_FL=BUILDING STORY 1_SCH=A,hourly; !- [J]
Output:Meter:Cumulative,Electricity:Zone:ALL_ST=OFFICE ENCLOSED <= 25 M2_FL=BUILDING STORY 1_SCH=A,hourly; !- [J]
Output:Meter,InteriorLights:Electricity:Zone:ALL_ST=OFFICE ENCLOSED <= 25 M2_FL=BUILDING STORY 1_SCH=A,hourly; !- [J]
Output:Meter:Cumulative,InteriorLights:Electricity:Zone:ALL_ST=OFFICE ENCLOSED <= 25 M2_FL=BUILDING STORY 1_SCH=A,hourly; !- [J]
Output:Meter,InteriorEquipment:Electricity,hourly; !- [J]
Output:Meter:Cumulative,InteriorEquipment:Electricity,hourly; !- [J]
Output:Meter,InteriorEquipment:Electricity:Zone:DU_BT=SPACE FUNCTION_ST=DWELLING UNITS GENERAL_FL=BUILDING STORY 10_SCHG,hourly; !- [J]
Output:Meter:Cumulative,InteriorEquipment:Electricity:Zone:DU_BT=SPACE FUNCTION_ST=DWELLING UNITS GENERAL_FL=BUILDING STORY 10_SCHG,hourly; !- [J]
Output:Meter,General:InteriorEquipment:Electricity,hourly; !- [J]
Output:Meter:Cumulative,General:InteriorEquipment:Electricity,hourly; !- [J]
Output:Meter,InteriorEquipment:Electricity:Zone:DU_BT=SPACE FUNCTION_ST=DWELLING UNITS GENERAL_FL=BUILDING STORY 10_SCHG 1,hourly; !- [J]
Output:Meter:Cumulative,InteriorEquipment:Electricity:Zone:DU_BT=SPACE FUNCTION_ST=DWELLING UNITS GENERAL_FL=BUILDING STORY 10_SCHG 1,hourly; !- [J]
Output:Meter,InteriorEquipment:Electricity:Zone:DU_BT=SPACE FUNCTION_ST=DWELLING UNITS GENERAL_FL=BUILDING STORY 10_SCHG 2,hourly; !- [J]
Output:Meter:Cumulative,InteriorEquipment:Electricity:Zone:DU_BT=SPACE FUNCTION_ST=DWELLING UNITS GENERAL_FL=BUILDING STORY 10_SCHG 2,hourly; !- [J]
Output:Meter,InteriorEquipment:Electricity:Zone:DU_BT=SPACE FUNCTION_ST=DWELLING UNITS GENERAL_FL=BUILDING STORY 10_SCHG 3,hourly; !- [J]
Output:Meter:Cumulative,InteriorEquipment:Electricity:Zone:DU_BT=SPACE FUNCTION_ST=DWELLING UNITS GENERAL_FL=BUILDING STORY 10_SCHG 3,hourly; !- [J]
Output:Meter,InteriorEquipment:Electricity:Zone:DU_BT=SPACE FUNCTION_ST=DWELLING UNITS GENERAL_FL=BUILDING STORY 10_SCHG 4,hourly; !- [J]
Output:Meter:Cumulative,InteriorEquipment:Electricity:Zone:DU_BT=SPACE FUNCTION_ST=DWELLING UNITS GENERAL_FL=BUILDING STORY 10_SCHG 4,hourly; !- [J]
Output:Meter,InteriorEquipment:Electricity:Zone:DU_BT=SPACE FUNCTION_ST=DWELLING UNITS GENERAL_FL=BUILDING STORY 10_SCHG 5,hourly; !- [J]
Output:Meter:Cumulative,InteriorEquipment:Electricity:Zone:DU_BT=SPACE FUNCTION_ST=DWELLING UNITS GENERAL_FL=BUILDING STORY 10_SCHG 5,hourly; !- [J]
Output:Meter,InteriorEquipment:Electricity:Zone:DU_BT=SPACE FUNCTION_ST=DWELLING UNITS GENERAL_FL=BUILDING STORY 10_SCHG 6,hourly; !- [J]
Output:Meter:Cumulative,InteriorEquipment:Electricity:Zone:DU_BT=SPACE FUNCTION_ST=DWELLING UNITS GENERAL_FL=BUILDING STORY 10_SCHG 6,hourly; !- [J]
Output:Meter,InteriorEquipment:Electricity:Zone:DU_BT=SPACE FUNCTION_ST=DWELLING UNITS GENERAL_FL=BUILDING STORY 10_SCHG 7,hourly; !- [J]
Output:Meter:Cumulative,InteriorEquipment:Electricity:Zone:DU_BT=SPACE FUNCTION_ST=DWELLING UNITS GENERAL_FL=BUILDING STORY 10_SCHG 7,hourly; !- [J]
Output:Meter,InteriorEquipment:Electricity:Zone:DU_BT=SPACE FUNCTION_ST=DWELLING UNITS GENERAL_FL=BUILDING STORY 1_SCHG,hourly; !- [J]
Output:Meter:Cumulative,InteriorEquipment:Electricity:Zone:DU_BT=SPACE FUNCTION_ST=DWELLING UNITS GENERAL_FL=BUILDING STORY 1_SCHG,hourly; !- [J]
Output:Meter,InteriorEquipment:Electricity:Zone:DU_BT=SPACE FUNCTION_ST=DWELLING UNITS GENERAL_FL=BUILDING STORY 1_SCHG 1,hourly; !- [J]
Output:Meter:Cumulative,InteriorEquipment:Electricity:Zone:DU_BT=SPACE FUNCTION_ST=DWELLING UNITS GENERAL_FL=BUILDING STORY 1_SCHG 1,hourly; !- [J]
Output:Meter,InteriorEquipment:Electricity:Zone:DU_BT=SPACE FUNCTION_ST=DWELLING UNITS GENERAL_FL=BUILDING STORY 1_SCHG 2,hourly; !- [J]
Output:Meter:Cumulative,InteriorEquipment:Electricity:Zone:DU_BT=SPACE FUNCTION_ST=DWELLING UNITS GENERAL_FL=BUILDING STORY 1_SCHG 2,hourly; !- [J]
Output:Meter,InteriorEquipment:Electricity:Zone:DU_BT=SPACE FUNCTION_ST=DWELLING UNITS GENERAL_FL=BUILDING STORY 1_SCHG 3,hourly; !- [J]
Output:Meter:Cumulative,InteriorEquipment:Electricity:Zone:DU_BT=SPACE FUNCTION_ST=DWELLING UNITS GENERAL_FL=BUILDING STORY 1_SCHG 3,hourly; !- [J]
Output:Meter,InteriorEquipment:Electricity:Zone:DU_BT=SPACE FUNCTION_ST=DWELLING UNITS GENERAL_FL=BUILDING STORY 1_SCHG 4,hourly; !- [J]
Output:Meter:Cumulative,InteriorEquipment:Electricity:Zone:DU_BT=SPACE FUNCTION_ST=DWELLING UNITS GENERAL_FL=BUILDING STORY 1_SCHG 4,hourly; !- [J]
Output:Meter,InteriorEquipment:Electricity:Zone:DU_BT=SPACE FUNCTION_ST=DWELLING UNITS GENERAL_FL=BUILDING STORY 1_SCHG 5,hourly; !- [J]
Output:Meter:Cumulative,InteriorEquipment:Electricity:Zone:DU_BT=SPACE FUNCTION_ST=DWELLING UNITS GENERAL_FL=BUILDING STORY 1_SCHG 5,hourly; !- [J]
Output:Meter,InteriorEquipment:Electricity:Zone:DU_BT=SPACE FUNCTION_ST=DWELLING UNITS GENERAL_FL=BUILDING STORY 1_SCHG 6,hourly; !- [J]
Output:Meter:Cumulative,InteriorEquipment:Electricity:Zone:DU_BT=SPACE FUNCTION_ST=DWELLING UNITS GENERAL_FL=BUILDING STORY 1_SCHG 6,hourly; !- [J]
Output:Meter,InteriorEquipment:Electricity:Zone:DU_BT=SPACE FUNCTION_ST=DWELLING UNITS GENERAL_FL=BUILDING STORY 2_SCHG,hourly; !- [J]
Output:Meter:Cumulative,InteriorEquipment:Electricity:Zone:DU_BT=SPACE FUNCTION_ST=DWELLING UNITS GENERAL_FL=BUILDING STORY 2_SCHG,hourly; !- [J]
Output:Meter,InteriorEquipment:Electricity:Zone:DU_BT=SPACE FUNCTION_ST=DWELLING UNITS GENERAL_FL=BUILDING STORY 2_SCHG 1,hourly; !- [J]
Output:Meter:Cumulative,InteriorEquipment:Electricity:Zone:DU_BT=SPACE FUNCTION_ST=DWELLING UNITS GENERAL_FL=BUILDING STORY 2_SCHG 1,hourly; !- [J]
Output:Meter,InteriorEquipment:Electricity:Zone:DU_BT=SPACE FUNCTION_ST=DWELLING UNITS GENERAL_FL=BUILDING STORY 2_SCHG 2,hourly; !- [J]
Output:Meter:Cumulative,InteriorEquipment:Electricity:Zone:DU_BT=SPACE FUNCTION_ST=DWELLING UNITS GENERAL_FL=BUILDING STORY 2_SCHG 2,hourly; !- [J]
Output:Meter,InteriorEquipment:Electricity:Zone:DU_BT=SPACE FUNCTION_ST=DWELLING UNITS GENERAL_FL=BUILDING STORY 2_SCHG 3,hourly; !- [J]
Output:Meter:Cumulative,InteriorEquipment:Electricity:Zone:DU_BT=SPACE FUNCTION_ST=DWELLING UNITS GENERAL_FL=BUILDING STORY 2_SCHG 3,hourly; !- [J]
Output:Meter,InteriorEquipment:Electricity:Zone:DU_BT=SPACE FUNCTION_ST=DWELLING UNITS GENERAL_FL=BUILDING STORY 2_SCHG 4,hourly; !- [J]
Output:Meter:Cumulative,InteriorEquipment:Electricity:Zone:DU_BT=SPACE FUNCTION_ST=DWELLING UNITS GENERAL_FL=BUILDING STORY 2_SCHG 4,hourly; !- [J]
Output:Meter,InteriorEquipment:Electricity:Zone:DU_BT=SPACE FUNCTION_ST=DWELLING UNITS GENERAL_FL=BUILDING STORY 2_SCHG 5,hourly; !- [J]
Output:Meter:Cumulative,InteriorEquipment:Electricity:Zone:DU_BT=SPACE FUNCTION_ST=DWELLING UNITS GENERAL_FL=BUILDING STORY 2_SCHG 5,hourly; !- [J]
Output:Meter,InteriorEquipment:Electricity:Zone:DU_BT=SPACE FUNCTION_ST=DWELLING UNITS GENERAL_FL=BUILDING STORY 2_SCHG 6,hourly; !- [J]
Output:Meter:Cumulative,InteriorEquipment:Electricity:Zone:DU_BT=SPACE FUNCTION_ST=DWELLING UNITS GENERAL_FL=BUILDING STORY 2_SCHG 6,hourly; !- [J]
Output:Meter,InteriorEquipment:Electricity:Zone:DU_BT=SPACE FUNCTION_ST=DWELLING UNITS GENERAL_FL=BUILDING STORY 2_SCHG 7,hourly; !- [J]
Output:Meter:Cumulative,InteriorEquipment:Electricity:Zone:DU_BT=SPACE FUNCTION_ST=DWELLING UNITS GENERAL_FL=BUILDING STORY 2_SCHG 7,hourly; !- [J]
Output:Meter,InteriorEquipment:Electricity:Zone:DU_BT=SPACE FUNCTION_ST=DWELLING UNITS GENERAL_FL=BUILDING STORY 3_SCHG,hourly; !- [J]
Output:Meter:Cumulative,InteriorEquipment:Electricity:Zone:DU_BT=SPACE FUNCTION_ST=DWELLING UNITS GENERAL_FL=BUILDING STORY 3_SCHG,hourly; !- [J]
Output:Meter,InteriorEquipment:Electricity:Zone:DU_BT=SPACE FUNCTION_ST=DWELLING UNITS GENERAL_FL=BUILDING STORY 3_SCHG 1,hourly; !- [J]
Output:Meter:Cumulative,InteriorEquipment:Electricity:Zone:DU_BT=SPACE FUNCTION_ST=DWELLING UNITS GENERAL_FL=BUILDING STORY 3_SCHG 1,hourly; !- [J]
Output:Meter,InteriorEquipment:Electricity:Zone:DU_BT=SPACE FUNCTION_ST=DWELLING UNITS GENERAL_FL=BUILDING STORY 3_SCHG 2,hourly; !- [J]
Output:Meter:Cumulative,InteriorEquipment:Electricity:Zone:DU_BT=SPACE FUNCTION_ST=DWELLING UNITS GENERAL_FL=BUILDING STORY 3_SCHG 2,hourly; !- [J]
Output:Meter,InteriorEquipment:Electricity:Zone:DU_BT=SPACE FUNCTION_ST=DWELLING UNITS GENERAL_FL=BUILDING STORY 3_SCHG 3,hourly; !- [J]
Output:Meter:Cumulative,InteriorEquipment:Electricity:Zone:DU_BT=SPACE FUNCTION_ST=DWELLING UNITS GENERAL_FL=BUILDING STORY 3_SCHG 3,hourly; !- [J]
Output:Meter,InteriorEquipment:Electricity:Zone:DU_BT=SPACE FUNCTION_ST=DWELLING UNITS GENERAL_FL=BUILDING STORY 3_SCHG 4,hourly; !- [J]
Output:Meter:Cumulative,InteriorEquipment:Electricity:Zone:DU_BT=SPACE FUNCTION_ST=DWELLING UNITS GENERAL_FL=BUILDING STORY 3_SCHG 4,hourly; !- [J]
Output:Meter,InteriorEquipment:Electricity:Zone:DU_BT=SPACE FUNCTION_ST=DWELLING UNITS GENERAL_FL=BUILDING STORY 3_SCHG 5,hourly; !- [J]
Output:Meter:Cumulative,InteriorEquipment:Electricity:Zone:DU_BT=SPACE FUNCTION_ST=DWELLING UNITS GENERAL_FL=BUILDING STORY 3_SCHG 5,hourly; !- [J]
Output:Meter,InteriorEquipment:Electricity:Zone:DU_BT=SPACE FUNCTION_ST=DWELLING UNITS GENERAL_FL=BUILDING STORY 3_SCHG 6,hourly; !- [J]
Output:Meter:Cumulative,InteriorEquipment:Electricity:Zone:DU_BT=SPACE FUNCTION_ST=DWELLING UNITS GENERAL_FL=BUILDING STORY 3_SCHG 6,hourly; !- [J]
Output:Meter,InteriorEquipment:Electricity:Zone:DU_BT=SPACE FUNCTION_ST=DWELLING UNITS GENERAL_FL=BUILDING STORY 3_SCHG 7,hourly; !- [J]
Output:Meter:Cumulative,InteriorEquipment:Electricity:Zone:DU_BT=SPACE FUNCTION_ST=DWELLING UNITS GENERAL_FL=BUILDING STORY 3_SCHG 7,hourly; !- [J]
Output:Meter,InteriorEquipment:Electricity:Zone:DU_BT=SPACE FUNCTION_ST=DWELLING UNITS GENERAL_FL=BUILDING STORY 4_SCHG,hourly; !- [J]
Output:Meter:Cumulative,InteriorEquipment:Electricity:Zone:DU_BT=SPACE FUNCTION_ST=DWELLING UNITS GENERAL_FL=BUILDING STORY 4_SCHG,hourly; !- [J]
Output:Meter,InteriorEquipment:Electricity:Zone:DU_BT=SPACE FUNCTION_ST=DWELLING UNITS GENERAL_FL=BUILDING STORY 4_SCHG 1,hourly; !- [J]
Output:Meter:Cumulative,InteriorEquipment:Electricity:Zone:DU_BT=SPACE FUNCTION_ST=DWELLING UNITS GENERAL_FL=BUILDING STORY 4_SCHG 1,hourly; !- [J]
Output:Meter,InteriorEquipment:Electricity:Zone:DU_BT=SPACE FUNCTION_ST=DWELLING UNITS GENERAL_FL=BUILDING STORY 4_SCHG 2,hourly; !- [J]
Output:Meter:Cumulative,InteriorEquipment:Electricity:Zone:DU_BT=SPACE FUNCTION_ST=DWELLING UNITS GENERAL_FL=BUILDING STORY 4_SCHG 2,hourly; !- [J]
Output:Meter,InteriorEquipment:Electricity:Zone:DU_BT=SPACE FUNCTION_ST=DWELLING UNITS GENERAL_FL=BUILDING STORY 4_SCHG 3,hourly; !- [J]
Output:Meter:Cumulative,InteriorEquipment:Electricity:Zone:DU_BT=SPACE FUNCTION_ST=DWELLING UNITS GENERAL_FL=BUILDING STORY 4_SCHG 3,hourly; !- [J]
Output:Meter,InteriorEquipment:Electricity:Zone:DU_BT=SPACE FUNCTION_ST=DWELLING UNITS GENERAL_FL=BUILDING STORY 4_SCHG 4,hourly; !- [J]
Output:Meter:Cumulative,InteriorEquipment:Electricity:Zone:DU_BT=SPACE FUNCTION_ST=DWELLING UNITS GENERAL_FL=BUILDING STORY 4_SCHG 4,hourly; !- [J]
Output:Meter,InteriorEquipment:Electricity:Zone:DU_BT=SPACE FUNCTION_ST=DWELLING UNITS GENERAL_FL=BUILDING STORY 4_SCHG 5,hourly; !- [J]
Output:Meter:Cumulative,InteriorEquipment:Electricity:Zone:DU_BT=SPACE FUNCTION_ST=DWELLING UNITS GENERAL_FL=BUILDING STORY 4_SCHG 5,hourly; !- [J]
Output:Meter,InteriorEquipment:Electricity:Zone:DU_BT=SPACE FUNCTION_ST=DWELLING UNITS GENERAL_FL=BUILDING STORY 4_SCHG 6,hourly; !- [J]
Output:Meter:Cumulative,InteriorEquipment:Electricity:Zone:DU_BT=SPACE FUNCTION_ST=DWELLING UNITS GENERAL_FL=BUILDING STORY 4_SCHG 6,hourly; !- [J]
Output:Meter,InteriorEquipment:Electricity:Zone:DU_BT=SPACE FUNCTION_ST=DWELLING UNITS GENERAL_FL=BUILDING STORY 4_SCHG 7,hourly; !- [J]
Output:Meter:Cumulative,InteriorEquipment:Electricity:Zone:DU_BT=SPACE FUNCTION_ST=DWELLING UNITS GENERAL_FL=BUILDING STORY 4_SCHG 7,hourly; !- [J]
Output:Meter,InteriorEquipment:Electricity:Zone:DU_BT=SPACE FUNCTION_ST=DWELLING UNITS GENERAL_FL=BUILDING STORY 5_SCHG,hourly; !- [J]
Output:Meter:Cumulative,InteriorEquipment:Electricity:Zone:DU_BT=SPACE FUNCTION_ST=DWELLING UNITS GENERAL_FL=BUILDING STORY 5_SCHG,hourly; !- [J]
Output:Meter,InteriorEquipment:Electricity:Zone:DU_BT=SPACE FUNCTION_ST=DWELLING UNITS GENERAL_FL=BUILDING STORY 5_SCHG 1,hourly; !- [J]
Output:Meter:Cumulative,InteriorEquipment:Electricity:Zone:DU_BT=SPACE FUNCTION_ST=DWELLING UNITS GENERAL_FL=BUILDING STORY 5_SCHG 1,hourly; !- [J]
Output:Meter,InteriorEquipment:Electricity:Zone:DU_BT=SPACE FUNCTION_ST=DWELLING UNITS GENERAL_FL=BUILDING STORY 5_SCHG 2,hourly; !- [J]
Output:Meter:Cumulative,InteriorEquipment:Electricity:Zone:DU_BT=SPACE FUNCTION_ST=DWELLING UNITS GENERAL_FL=BUILDING STORY 5_SCHG 2,hourly; !- [J]
Output:Meter,InteriorEquipment:Electricity:Zone:DU_BT=SPACE FUNCTION_ST=DWELLING UNITS GENERAL_FL=BUILDING STORY 5_SCHG 3,hourly; !- [J]
Output:Meter:Cumulative,InteriorEquipment:Electricity:Zone:DU_BT=SPACE FUNCTION_ST=DWELLING UNITS GENERAL_FL=BUILDING STORY 5_SCHG 3,hourly; !- [J]
Output:Meter,InteriorEquipment:Electricity:Zone:DU_BT=SPACE FUNCTION_ST=DWELLING UNITS GENERAL_FL=BUILDING STORY 5_SCHG 4,hourly; !- [J]
Output:Meter:Cumulative,InteriorEquipment:Electricity:Zone:DU_BT=SPACE FUNCTION_ST=DWELLING UNITS GENERAL_FL=BUILDING STORY 5_SCHG 4,hourly; !- [J]
Output:Meter,InteriorEquipment:Electricity:Zone:DU_BT=SPACE FUNCTION_ST=DWELLING UNITS GENERAL_FL=BUILDING STORY 5_SCHG 5,hourly; !- [J]
Output:Meter:Cumulative,InteriorEquipment:Electricity:Zone:DU_BT=SPACE FUNCTION_ST=DWELLING UNITS GENERAL_FL=BUILDING STORY 5_SCHG 5,hourly; !- [J]
Output:Meter,InteriorEquipment:Electricity:Zone:DU_BT=SPACE FUNCTION_ST=DWELLING UNITS GENERAL_FL=BUILDING STORY 5_SCHG 6,hourly; !- [J]
Output:Meter:Cumulative,InteriorEquipment:Electricity:Zone:DU_BT=SPACE FUNCTION_ST=DWELLING UNITS GENERAL_FL=BUILDING STORY 5_SCHG 6,hourly; !- [J]
Output:Meter,InteriorEquipment:Electricity:Zone:DU_BT=SPACE FUNCTION_ST=DWELLING UNITS GENERAL_FL=BUILDING STORY 5_SCHG 7,hourly; !- [J]
Output:Meter:Cumulative,InteriorEquipment:Electricity:Zone:DU_BT=SPACE FUNCTION_ST=DWELLING UNITS GENERAL_FL=BUILDING STORY 5_SCHG 7,hourly; !- [J]
Output:Meter,InteriorEquipment:Electricity:Zone:DU_BT=SPACE FUNCTION_ST=DWELLING UNITS GENERAL_FL=BUILDING STORY 6_SCHG,hourly; !- [J]
Output:Meter:Cumulative,InteriorEquipment:Electricity:Zone:DU_BT=SPACE FUNCTION_ST=DWELLING UNITS GENERAL_FL=BUILDING STORY 6_SCHG,hourly; !- [J]
Output:Meter,InteriorEquipment:Electricity:Zone:DU_BT=SPACE FUNCTION_ST=DWELLING UNITS GENERAL_FL=BUILDING STORY 6_SCHG 1,hourly; !- [J]
Output:Meter:Cumulative,InteriorEquipment:Electricity:Zone:DU_BT=SPACE FUNCTION_ST=DWELLING UNITS GENERAL_FL=BUILDING STORY 6_SCHG 1,hourly; !- [J]
Output:Meter,InteriorEquipment:Electricity:Zone:DU_BT=SPACE FUNCTION_ST=DWELLING UNITS GENERAL_FL=BUILDING STORY 6_SCHG 2,hourly; !- [J]
Output:Meter:Cumulative,InteriorEquipment:Electricity:Zone:DU_BT=SPACE FUNCTION_ST=DWELLING UNITS GENERAL_FL=BUILDING STORY 6_SCHG 2,hourly; !- [J]
Output:Meter,InteriorEquipment:Electricity:Zone:DU_BT=SPACE FUNCTION_ST=DWELLING UNITS GENERAL_FL=BUILDING STORY 6_SCHG 3,hourly; !- [J]
Output:Meter:Cumulative,InteriorEquipment:Electricity:Zone:DU_BT=SPACE FUNCTION_ST=DWELLING UNITS GENERAL_FL=BUILDING STORY 6_SCHG 3,hourly; !- [J]
Output:Meter,InteriorEquipment:Electricity:Zone:DU_BT=SPACE FUNCTION_ST=DWELLING UNITS GENERAL_FL=BUILDING STORY 6_SCHG 4,hourly; !- [J]
Output:Meter:Cumulative,InteriorEquipment:Electricity:Zone:DU_BT=SPACE FUNCTION_ST=DWELLING UNITS GENERAL_FL=BUILDING STORY 6_SCHG 4,hourly; !- [J]
Output:Meter,InteriorEquipment:Electricity:Zone:DU_BT=SPACE FUNCTION_ST=DWELLING UNITS GENERAL_FL=BUILDING STORY 6_SCHG 5,hourly; !- [J]
Output:Meter:Cumulative,InteriorEquipment:Electricity:Zone:DU_BT=SPACE FUNCTION_ST=DWELLING UNITS GENERAL_FL=BUILDING STORY 6_SCHG 5,hourly; !- [J]
Output:Meter,InteriorEquipment:Electricity:Zone:DU_BT=SPACE FUNCTION_ST=DWELLING UNITS GENERAL_FL=BUILDING STORY 6_SCHG 6,hourly; !- [J]
Output:Meter:Cumulative,InteriorEquipment:Electricity:Zone:DU_BT=SPACE FUNCTION_ST=DWELLING UNITS GENERAL_FL=BUILDING STORY 6_SCHG 6,hourly; !- [J]
Output:Meter,InteriorEquipment:Electricity:Zone:DU_BT=SPACE FUNCTION_ST=DWELLING UNITS GENERAL_FL=BUILDING STORY 6_SCHG 7,hourly; !- [J]
Output:Meter:Cumulative,InteriorEquipment:Electricity:Zone:DU_BT=SPACE FUNCTION_ST=DWELLING UNITS GENERAL_FL=BUILDING STORY 6_SCHG 7,hourly; !- [J]
Output:Meter,InteriorEquipment:Electricity:Zone:DU_BT=SPACE FUNCTION_ST=DWELLING UNITS GENERAL_FL=BUILDING STORY 7_SCHG,hourly; !- [J]
Output:Meter:Cumulative,InteriorEquipment:Electricity:Zone:DU_BT=SPACE FUNCTION_ST=DWELLING UNITS GENERAL_FL=BUILDING STORY 7_SCHG,hourly; !- [J]
Output:Meter,InteriorEquipment:Electricity:Zone:DU_BT=SPACE FUNCTION_ST=DWELLING UNITS GENERAL_FL=BUILDING STORY 7_SCHG 1,hourly; !- [J]
Output:Meter:Cumulative,InteriorEquipment:Electricity:Zone:DU_BT=SPACE FUNCTION_ST=DWELLING UNITS GENERAL_FL=BUILDING STORY 7_SCHG 1,hourly; !- [J]
Output:Meter,InteriorEquipment:Electricity:Zone:DU_BT=SPACE FUNCTION_ST=DWELLING UNITS GENERAL_FL=BUILDING STORY 7_SCHG 2,hourly; !- [J]
Output:Meter:Cumulative,InteriorEquipment:Electricity:Zone:DU_BT=SPACE FUNCTION_ST=DWELLING UNITS GENERAL_FL=BUILDING STORY 7_SCHG 2,hourly; !- [J]
Output:Meter,InteriorEquipment:Electricity:Zone:DU_BT=SPACE FUNCTION_ST=DWELLING UNITS GENERAL_FL=BUILDING STORY 7_SCHG 3,hourly; !- [J]
Output:Meter:Cumulative,InteriorEquipment:Electricity:Zone:DU_BT=SPACE FUNCTION_ST=DWELLING UNITS GENERAL_FL=BUILDING STORY 7_SCHG 3,hourly; !- [J]
Output:Meter,InteriorEquipment:Electricity:Zone:DU_BT=SPACE FUNCTION_ST=DWELLING UNITS GENERAL_FL=BUILDING STORY 7_SCHG 4,hourly; !- [J]
Output:Meter:Cumulative,InteriorEquipment:Electricity:Zone:DU_BT=SPACE FUNCTION_ST=DWELLING UNITS GENERAL_FL=BUILDING STORY 7_SCHG 4,hourly; !- [J]
Output:Meter,InteriorEquipment:Electricity:Zone:DU_BT=SPACE FUNCTION_ST=DWELLING UNITS GENERAL_FL=BUILDING STORY 7_SCHG 5,hourly; !- [J]
Output:Meter:Cumulative,InteriorEquipment:Electricity:Zone:DU_BT=SPACE FUNCTION_ST=DWELLING UNITS GENERAL_FL=BUILDING STORY 7_SCHG 5,hourly; !- [J]
Output:Meter,InteriorEquipment:Electricity:Zone:DU_BT=SPACE FUNCTION_ST=DWELLING UNITS GENERAL_FL=BUILDING STORY 7_SCHG 6,hourly; !- [J]
Output:Meter:Cumulative,InteriorEquipment:Electricity:Zone:DU_BT=SPACE FUNCTION_ST=DWELLING UNITS GENERAL_FL=BUILDING STORY 7_SCHG 6,hourly; !- [J]
Output:Meter,InteriorEquipment:Electricity:Zone:DU_BT=SPACE FUNCTION_ST=DWELLING UNITS GENERAL_FL=BUILDING STORY 7_SCHG 7,hourly; !- [J]
Output:Meter:Cumulative,InteriorEquipment:Electricity:Zone:DU_BT=SPACE FUNCTION_ST=DWELLING UNITS GENERAL_FL=BUILDING STORY 7_SCHG 7,hourly; !- [J]
Output:Meter,InteriorEquipment:Electricity:Zone:DU_BT=SPACE FUNCTION_ST=DWELLING UNITS GENERAL_FL=BUILDING STORY 8_SCHG,hourly; !- [J]
Output:Meter:Cumulative,InteriorEquipment:Electricity:Zone:DU_BT=SPACE FUNCTION_ST=DWELLING UNITS GENERAL_FL=BUILDING STORY 8_SCHG,hourly; !- [J]
Output:Meter,InteriorEquipment:Electricity:Zone:DU_BT=SPACE FUNCTION_ST=DWELLING UNITS GENERAL_FL=BUILDING STORY 8_SCHG 1,hourly; !- [J]
Output:Meter:Cumulative,InteriorEquipment:Electricity:Zone:DU_BT=SPACE FUNCTION_ST=DWELLING UNITS GENERAL_FL=BUILDING STORY 8_SCHG 1,hourly; !- [J]
Output:Meter,InteriorEquipment:Electricity:Zone:DU_BT=SPACE FUNCTION_ST=DWELLING UNITS GENERAL_FL=BUILDING STORY 8_SCHG 2,hourly; !- [J]
Output:Meter:Cumulative,InteriorEquipment:Electricity:Zone:DU_BT=SPACE FUNCTION_ST=DWELLING UNITS GENERAL_FL=BUILDING STORY 8_SCHG 2,hourly; !- [J]
Output:Meter,InteriorEquipment:Electricity:Zone:DU_BT=SPACE FUNCTION_ST=DWELLING UNITS GENERAL_FL=BUILDING STORY 8_SCHG 3,hourly; !- [J]
Output:Meter:Cumulative,InteriorEquipment:Electricity:Zone:DU_BT=SPACE FUNCTION_ST=DWELLING UNITS GENERAL_FL=BUILDING STORY 8_SCHG 3,hourly; !- [J]
Output:Meter,InteriorEquipment:Electricity:Zone:DU_BT=SPACE FUNCTION_ST=DWELLING UNITS GENERAL_FL=BUILDING STORY 8_SCHG 4,hourly; !- [J]
Output:Meter:Cumulative,InteriorEquipment:Electricity:Zone:DU_BT=SPACE FUNCTION_ST=DWELLING UNITS GENERAL_FL=BUILDING STORY 8_SCHG 4,hourly; !- [J]
Output:Meter,InteriorEquipment:Electricity:Zone:DU_BT=SPACE FUNCTION_ST=DWELLING UNITS GENERAL_FL=BUILDING STORY 8_SCHG 5,hourly; !- [J]
Output:Meter:Cumulative,InteriorEquipment:Electricity:Zone:DU_BT=SPACE FUNCTION_ST=DWELLING UNITS GENERAL_FL=BUILDING STORY 8_SCHG 5,hourly; !- [J]
Output:Meter,InteriorEquipment:Electricity:Zone:DU_BT=SPACE FUNCTION_ST=DWELLING UNITS GENERAL_FL=BUILDING STORY 8_SCHG 6,hourly; !- [J]
Output:Meter:Cumulative,InteriorEquipment:Electricity:Zone:DU_BT=SPACE FUNCTION_ST=DWELLING UNITS GENERAL_FL=BUILDING STORY 8_SCHG 6,hourly; !- [J]
Output:Meter,InteriorEquipment:Electricity:Zone:DU_BT=SPACE FUNCTION_ST=DWELLING UNITS GENERAL_FL=BUILDING STORY 8_SCHG 7,hourly; !- [J]
Output:Meter:Cumulative,InteriorEquipment:Electricity:Zone:DU_BT=SPACE FUNCTION_ST=DWELLING UNITS GENERAL_FL=BUILDING STORY 8_SCHG 7,hourly; !- [J]
Output:Meter,InteriorEquipment:Electricity:Zone:DU_BT=SPACE FUNCTION_ST=DWELLING UNITS GENERAL_FL=BUILDING STORY 9_SCHG,hourly; !- [J]
Output:Meter:Cumulative,InteriorEquipment:Electricity:Zone:DU_BT=SPACE FUNCTION_ST=DWELLING UNITS GENERAL_FL=BUILDING STORY 9_SCHG,hourly; !- [J]
Output:Meter,InteriorEquipment:Electricity:Zone:DU_BT=SPACE FUNCTION_ST=DWELLING UNITS GENERAL_FL=BUILDING STORY 9_SCHG 1,hourly; !- [J]
Output:Meter:Cumulative,InteriorEquipment:Electricity:Zone:DU_BT=SPACE FUNCTION_ST=DWELLING UNITS GENERAL_FL=BUILDING STORY 9_SCHG 1,hourly; !- [J]
Output:Meter,InteriorEquipment:Electricity:Zone:DU_BT=SPACE FUNCTION_ST=DWELLING UNITS GENERAL_FL=BUILDING STORY 9_SCHG 2,hourly; !- [J]
Output:Meter:Cumulative,InteriorEquipment:Electricity:Zone:DU_BT=SPACE FUNCTION_ST=DWELLING UNITS GENERAL_FL=BUILDING STORY 9_SCHG 2,hourly; !- [J]
Output:Meter,InteriorEquipment:Electricity:Zone:DU_BT=SPACE FUNCTION_ST=DWELLING UNITS GENERAL_FL=BUILDING STORY 9_SCHG 3,hourly; !- [J]
Output:Meter:Cumulative,InteriorEquipment:Electricity:Zone:DU_BT=SPACE FUNCTION_ST=DWELLING UNITS GENERAL_FL=BUILDING STORY 9_SCHG 3,hourly; !- [J]
Output:Meter,InteriorEquipment:Electricity:Zone:DU_BT=SPACE FUNCTION_ST=DWELLING UNITS GENERAL_FL=BUILDING STORY 9_SCHG 4,hourly; !- [J]
Output:Meter:Cumulative,InteriorEquipment:Electricity:Zone:DU_BT=SPACE FUNCTION_ST=DWELLING UNITS GENERAL_FL=BUILDING STORY 9_SCHG 4,hourly; !- [J]
Output:Meter,InteriorEquipment:Electricity:Zone:DU_BT=SPACE FUNCTION_ST=DWELLING UNITS GENERAL_FL=BUILDING STORY 9_SCHG 5,hourly; !- [J]
Output:Meter:Cumulative,InteriorEquipment:Electricity:Zone:DU_BT=SPACE FUNCTION_ST=DWELLING UNITS GENERAL_FL=BUILDING STORY 9_SCHG 5,hourly; !- [J]
Output:Meter,InteriorEquipment:Electricity:Zone:DU_BT=SPACE FUNCTION_ST=DWELLING UNITS GENERAL_FL=BUILDING STORY 9_SCHG 6,hourly; !- [J]
Output:Meter:Cumulative,InteriorEquipment:Electricity:Zone:DU_BT=SPACE FUNCTION_ST=DWELLING UNITS GENERAL_FL=BUILDING STORY 9_SCHG 6,hourly; !- [J]
Output:Meter,InteriorEquipment:Electricity:Zone:DU_BT=SPACE FUNCTION_ST=DWELLING UNITS GENERAL_FL=BUILDING STORY 9_SCHG 7,hourly; !- [J]
Output:Meter:Cumulative,InteriorEquipment:Electricity:Zone:DU_BT=SPACE FUNCTION_ST=DWELLING UNITS GENERAL_FL=BUILDING STORY 9_SCHG 7,hourly; !- [J]
Output:Meter,InteriorEquipment:Electricity:Zone:ALL_ST=OFFICE ENCLOSED <= 25 M2_FL=BUILDING STORY 1_SCH=A,hourly; !- [J]
Output:Meter:Cumulative,InteriorEquipment:Electricity:Zone:ALL_ST=OFFICE ENCLOSED <= 25 M2_FL=BUILDING STORY 1_SCH=A,hourly; !- [J]
Output:Meter,PlantLoopHeatingDemand:Facility,hourly; !- [J]
Output:Meter:Cumulative,PlantLoopHeatingDemand:Facility,hourly; !- [J]
Output:Meter,PlantLoopHeatingDemand:Plant,hourly; !- [J]
Output:Meter:Cumulative,PlantLoopHeatingDemand:Plant,hourly; !- [J]
Output:Meter,WaterSystems:PlantLoopHeatingDemand,hourly; !- [J]
Output:Meter:Cumulative,WaterSystems:PlantLoopHeatingDemand,hourly; !- [J]
Output:Meter,General:WaterSystems:PlantLoopHeatingDemand,hourly; !- [J]
Output:Meter:Cumulative,General:WaterSystems:PlantLoopHeatingDemand,hourly; !- [J]
Output:Meter,Electricity:Plant,hourly; !- [J]
Output:Meter:Cumulative,Electricity:Plant,hourly; !- [J]
Output:Meter,WaterSystems:Electricity,hourly; !- [J]
Output:Meter:Cumulative,WaterSystems:Electricity,hourly; !- [J]
Output:Meter,General:WaterSystems:Electricity,hourly; !- [J]
Output:Meter:Cumulative,General:WaterSystems:Electricity,hourly; !- [J]
Output:Meter,Water:Facility,hourly; !- [m3]
Output:Meter:Cumulative,Water:Facility,hourly; !- [m3]
Output:Meter,Water:Plant,hourly; !- [m3]
Output:Meter:Cumulative,Water:Plant,hourly; !- [m3]
Output:Meter,WaterSystems:Water,hourly; !- [m3]
Output:Meter:Cumulative,WaterSystems:Water,hourly; !- [m3]
Output:Meter,General:WaterSystems:Water,hourly; !- [m3]
Output:Meter:Cumulative,General:WaterSystems:Water,hourly; !- [m3]
Output:Meter,MainsWater:Facility,hourly; !- [m3]
Output:Meter:Cumulative,MainsWater:Facility,hourly; !- [m3]
Output:Meter,MainsWater:Plant,hourly; !- [m3]
Output:Meter:Cumulative,MainsWater:Plant,hourly; !- [m3]
Output:Meter,WaterSystems:MainsWater,hourly; !- [m3]
Output:Meter:Cumulative,WaterSystems:MainsWater,hourly; !- [m3]
Output:Meter,General:WaterSystems:MainsWater,hourly; !- [m3]
Output:Meter:Cumulative,General:WaterSystems:MainsWater,hourly; !- [m3]
Output:Meter,EnergyTransfer:Facility,hourly; !- [J]
Output:Meter:Cumulative,EnergyTransfer:Facility,hourly; !- [J]
Output:Meter,EnergyTransfer:Building,hourly; !- [J]
Output:Meter:Cumulative,EnergyTransfer:Building,hourly; !- [J]
Output:Meter,EnergyTransfer:Zone:ALL_ST=OFFICE ENCLOSED <= 25 M2_FL=BUILDING STORY 1_SCH=A,hourly; !- [J]
Output:Meter:Cumulative,EnergyTransfer:Zone:ALL_ST=OFFICE ENCLOSED <= 25 M2_FL=BUILDING STORY 1_SCH=A,hourly; !- [J]
Output:Meter,Heating:EnergyTransfer,hourly; !- [J]
Output:Meter:Cumulative,Heating:EnergyTransfer,hourly; !- [J]
Output:Meter,Heating:EnergyTransfer:Zone:ALL_ST=OFFICE ENCLOSED <= 25 M2_FL=BUILDING STORY 1_SCH=A,hourly; !- [J]
Output:Meter:Cumulative,Heating:EnergyTransfer:Zone:ALL_ST=OFFICE ENCLOSED <= 25 M2_FL=BUILDING STORY 1_SCH=A,hourly; !- [J]
Output:Meter,Cooling:EnergyTransfer,hourly; !- [J]
Output:Meter:Cumulative,Cooling:EnergyTransfer,hourly; !- [J]
Output:Meter,Cooling:EnergyTransfer:Zone:ALL_ST=OFFICE ENCLOSED <= 25 M2_FL=BUILDING STORY 1_SCH=A,hourly; !- [J]
Output:Meter:Cumulative,Cooling:EnergyTransfer:Zone:ALL_ST=OFFICE ENCLOSED <= 25 M2_FL=BUILDING STORY 1_SCH=A,hourly; !- [J]
Output:Meter,EnergyTransfer:Zone:DU_BT=SPACE FUNCTION_ST=DWELLING UNITS GENERAL_FL=BUILDING STORY 10_SCHG,hourly; !- [J]
Output:Meter:Cumulative,EnergyTransfer:Zone:DU_BT=SPACE FUNCTION_ST=DWELLING UNITS GENERAL_FL=BUILDING STORY 10_SCHG,hourly; !- [J]
Output:Meter,Heating:EnergyTransfer:Zone:DU_BT=SPACE FUNCTION_ST=DWELLING UNITS GENERAL_FL=BUILDING STORY 10_SCHG,hourly; !- [J]
Output:Meter:Cumulative,Heating:EnergyTransfer:Zone:DU_BT=SPACE FUNCTION_ST=DWELLING UNITS GENERAL_FL=BUILDING STORY 10_SCHG,hourly; !- [J]
Output:Meter,Cooling:EnergyTransfer:Zone:DU_BT=SPACE FUNCTION_ST=DWELLING UNITS GENERAL_FL=BUILDING STORY 10_SCHG,hourly; !- [J]
Output:Meter:Cumulative,Cooling:EnergyTransfer:Zone:DU_BT=SPACE FUNCTION_ST=DWELLING UNITS GENERAL_FL=BUILDING STORY 10_SCHG,hourly; !- [J]
Output:Meter,EnergyTransfer:Zone:DU_BT=SPACE FUNCTION_ST=DWELLING UNITS GENERAL_FL=BUILDING STORY 10_SCHG 1,hourly; !- [J]
Output:Meter:Cumulative,EnergyTransfer:Zone:DU_BT=SPACE FUNCTION_ST=DWELLING UNITS GENERAL_FL=BUILDING STORY 10_SCHG 1,hourly; !- [J]
Output:Meter,Heating:EnergyTransfer:Zone:DU_BT=SPACE FUNCTION_ST=DWELLING UNITS GENERAL_FL=BUILDING STORY 10_SCHG 1,hourly; !- [J]
Output:Meter:Cumulative,Heating:EnergyTransfer:Zone:DU_BT=SPACE FUNCTION_ST=DWELLING UNITS GENERAL_FL=BUILDING STORY 10_SCHG 1,hourly; !- [J]
Output:Meter,Cooling:EnergyTransfer:Zone:DU_BT=SPACE FUNCTION_ST=DWELLING UNITS GENERAL_FL=BUILDING STORY 10_SCHG 1,hourly; !- [J]
Output:Meter:Cumulative,Cooling:EnergyTransfer:Zone:DU_BT=SPACE FUNCTION_ST=DWELLING UNITS GENERAL_FL=BUILDING STORY 10_SCHG 1,hourly; !- [J]
Output:Meter,EnergyTransfer:Zone:DU_BT=SPACE FUNCTION_ST=DWELLING UNITS GENERAL_FL=BUILDING STORY 10_SCHG 2,hourly; !- [J]
Output:Meter:Cumulative,EnergyTransfer:Zone:DU_BT=SPACE FUNCTION_ST=DWELLING UNITS GENERAL_FL=BUILDING STORY 10_SCHG 2,hourly; !- [J]
Output:Meter,Heating:EnergyTransfer:Zone:DU_BT=SPACE FUNCTION_ST=DWELLING UNITS GENERAL_FL=BUILDING STORY 10_SCHG 2,hourly; !- [J]
Output:Meter:Cumulative,Heating:EnergyTransfer:Zone:DU_BT=SPACE FUNCTION_ST=DWELLING UNITS GENERAL_FL=BUILDING STORY 10_SCHG 2,hourly; !- [J]
Output:Meter,Cooling:EnergyTransfer:Zone:DU_BT=SPACE FUNCTION_ST=DWELLING UNITS GENERAL_FL=BUILDING STORY 10_SCHG 2,hourly; !- [J]
Output:Meter:Cumulative,Cooling:EnergyTransfer:Zone:DU_BT=SPACE FUNCTION_ST=DWELLING UNITS GENERAL_FL=BUILDING STORY 10_SCHG 2,hourly; !- [J]
Output:Meter,EnergyTransfer:Zone:DU_BT=SPACE FUNCTION_ST=DWELLING UNITS GENERAL_FL=BUILDING STORY 10_SCHG 3,hourly; !- [J]
Output:Meter:Cumulative,EnergyTransfer:Zone:DU_BT=SPACE FUNCTION_ST=DWELLING UNITS GENERAL_FL=BUILDING STORY 10_SCHG 3,hourly; !- [J]
Output:Meter,Heating:EnergyTransfer:Zone:DU_BT=SPACE FUNCTION_ST=DWELLING UNITS GENERAL_FL=BUILDING STORY 10_SCHG 3,hourly; !- [J]
Output:Meter:Cumulative,Heating:EnergyTransfer:Zone:DU_BT=SPACE FUNCTION_ST=DWELLING UNITS GENERAL_FL=BUILDING STORY 10_SCHG 3,hourly; !- [J]
Output:Meter,Cooling:EnergyTransfer:Zone:DU_BT=SPACE FUNCTION_ST=DWELLING UNITS GENERAL_FL=BUILDING STORY 10_SCHG 3,hourly; !- [J]
Output:Meter:Cumulative,Cooling:EnergyTransfer:Zone:DU_BT=SPACE FUNCTION_ST=DWELLING UNITS GENERAL_FL=BUILDING STORY 10_SCHG 3,hourly; !- [J]
Output:Meter,EnergyTransfer:Zone:DU_BT=SPACE FUNCTION_ST=DWELLING UNITS GENERAL_FL=BUILDING STORY 10_SCHG 4,hourly; !- [J]
Output:Meter:Cumulative,EnergyTransfer:Zone:DU_BT=SPACE FUNCTION_ST=DWELLING UNITS GENERAL_FL=BUILDING STORY 10_SCHG 4,hourly; !- [J]
Output:Meter,Heating:EnergyTransfer:Zone:DU_BT=SPACE FUNCTION_ST=DWELLING UNITS GENERAL_FL=BUILDING STORY 10_SCHG 4,hourly; !- [J]
Output:Meter:Cumulative,Heating:EnergyTransfer:Zone:DU_BT=SPACE FUNCTION_ST=DWELLING UNITS GENERAL_FL=BUILDING STORY 10_SCHG 4,hourly; !- [J]
Output:Meter,Cooling:EnergyTransfer:Zone:DU_BT=SPACE FUNCTION_ST=DWELLING UNITS GENERAL_FL=BUILDING STORY 10_SCHG 4,hourly; !- [J]
Output:Meter:Cumulative,Cooling:EnergyTransfer:Zone:DU_BT=SPACE FUNCTION_ST=DWELLING UNITS GENERAL_FL=BUILDING STORY 10_SCHG 4,hourly; !- [J]
Output:Meter,EnergyTransfer:Zone:DU_BT=SPACE FUNCTION_ST=DWELLING UNITS GENERAL_FL=BUILDING STORY 10_SCHG 5,hourly; !- [J]
Output:Meter:Cumulative,EnergyTransfer:Zone:DU_BT=SPACE FUNCTION_ST=DWELLING UNITS GENERAL_FL=BUILDING STORY 10_SCHG 5,hourly; !- [J]
Output:Meter,Heating:EnergyTransfer:Zone:DU_BT=SPACE FUNCTION_ST=DWELLING UNITS GENERAL_FL=BUILDING STORY 10_SCHG 5,hourly; !- [J]
Output:Meter:Cumulative,Heating:EnergyTransfer:Zone:DU_BT=SPACE FUNCTION_ST=DWELLING UNITS GENERAL_FL=BUILDING STORY 10_SCHG 5,hourly; !- [J]
Output:Meter,Cooling:EnergyTransfer:Zone:DU_BT=SPACE FUNCTION_ST=DWELLING UNITS GENERAL_FL=BUILDING STORY 10_SCHG 5,hourly; !- [J]
Output:Meter:Cumulative,Cooling:EnergyTransfer:Zone:DU_BT=SPACE FUNCTION_ST=DWELLING UNITS GENERAL_FL=BUILDING STORY 10_SCHG 5,hourly; !- [J]
Output:Meter,EnergyTransfer:Zone:DU_BT=SPACE FUNCTION_ST=DWELLING UNITS GENERAL_FL=BUILDING STORY 10_SCHG 6,hourly; !- [J]
Output:Meter:Cumulative,EnergyTransfer:Zone:DU_BT=SPACE FUNCTION_ST=DWELLING UNITS GENERAL_FL=BUILDING STORY 10_SCHG 6,hourly; !- [J]
Output:Meter,Heating:EnergyTransfer:Zone:DU_BT=SPACE FUNCTION_ST=DWELLING UNITS GENERAL_FL=BUILDING STORY 10_SCHG 6,hourly; !- [J]
Output:Meter:Cumulative,Heating:EnergyTransfer:Zone:DU_BT=SPACE FUNCTION_ST=DWELLING UNITS GENERAL_FL=BUILDING STORY 10_SCHG 6,hourly; !- [J]
Output:Meter,Cooling:EnergyTransfer:Zone:DU_BT=SPACE FUNCTION_ST=DWELLING UNITS GENERAL_FL=BUILDING STORY 10_SCHG 6,hourly; !- [J]
Output:Meter:Cumulative,Cooling:EnergyTransfer:Zone:DU_BT=SPACE FUNCTION_ST=DWELLING UNITS GENERAL_FL=BUILDING STORY 10_SCHG 6,hourly; !- [J]
Output:Meter,EnergyTransfer:Zone:DU_BT=SPACE FUNCTION_ST=DWELLING UNITS GENERAL_FL=BUILDING STORY 10_SCHG 7,hourly; !- [J]
Output:Meter:Cumulative,EnergyTransfer:Zone:DU_BT=SPACE FUNCTION_ST=DWELLING UNITS GENERAL_FL=BUILDING STORY 10_SCHG 7,hourly; !- [J]
Output:Meter,Heating:EnergyTransfer:Zone:DU_BT=SPACE FUNCTION_ST=DWELLING UNITS GENERAL_FL=BUILDING STORY 10_SCHG 7,hourly; !- [J]
Output:Meter:Cumulative,Heating:EnergyTransfer:Zone:DU_BT=SPACE FUNCTION_ST=DWELLING UNITS GENERAL_FL=BUILDING STORY 10_SCHG 7,hourly; !- [J]
[...]
Output:Meter:Cumulative,Cooling:EnergyTransfer:Zone:DU_BT=SPACE FUNCTION_ST=DWELLING UNITS GENERAL_FL=BUILDING STORY 8_SCHG 7,hourly; !- [J]
Output:Meter,EnergyTransfer:Zone:DU_BT=SPACE FUNCTION_ST=DWELLING UNITS GENERAL_FL=BUILDING STORY 9_SCHG,hourly; !- [J]
Output:Meter:Cumulative,EnergyTransfer:Zone:DU_BT=SPACE FUNCTION_ST=DWELLING UNITS GENERAL_FL=BUILDING STORY 9_SCHG,hourly; !- [J]
Output:Meter,Heating:EnergyTransfer:Zone:DU_BT=SPACE FUNCTION_ST=DWELLING UNITS GENERAL_FL=BUILDING STORY 9_SCHG,hourly; !- [J]
Output:Meter:Cumulative,Heating:EnergyTransfer:Zone:DU_BT=SPACE FUNCTION_ST=DWELLING UNITS GENERAL_FL=BUILDING STORY 9_SCHG,hourly; !- [J]
Output:Meter,Cooling:EnergyTransfer:Zone:DU_BT=SPACE FUNCTION_ST=DWELLING UNITS GENERAL_FL=BUILDING STORY 9_SCHG,hourly; !- [J]
Output:Meter:Cumulative,Cooling:EnergyTransfer:Zone:DU_BT=SPACE FUNCTION_ST=DWELLING UNITS GENERAL_FL=BUILDING STORY 9_SCHG,hourly; !- [J]
Output:Meter,EnergyTransfer:Zone:DU_BT=SPACE FUNCTION_ST=DWELLING UNITS GENERAL_FL=BUILDING STORY 9_SCHG 1,hourly; !- [J]
Output:Meter:Cumulative,EnergyTransfer:Zone:DU_BT=SPACE FUNCTION_ST=DWELLING UNITS GENERAL_FL=BUILDING STORY 9_SCHG 1,hourly; !- [J]
Output:Meter,Heating:EnergyTransfer:Zone:DU_BT=SPACE FUNCTION_ST=DWELLING UNITS GENERAL_FL=BUILDING STORY 9_SCHG 1,hourly; !- [J]
Output:Meter:Cumulative,Heating:EnergyTransfer:Zone:DU_BT=SPACE FUNCTION_ST=DWELLING UNITS GENERAL_FL=BUILDING STORY 9_SCHG 1,hourly; !- [J]
Output:Meter,Cooling:EnergyTransfer:Zone:DU_BT=SPACE FUNCTION_ST=DWELLING UNITS GENERAL_FL=BUILDING STORY 9_SCHG 1,hourly; !- [J]
Output:Meter:Cumulative,Cooling:EnergyTransfer:Zone:DU_BT=SPACE FUNCTION_ST=DWELLING UNITS GENERAL_FL=BUILDING STORY 9_SCHG 1,hourly; !- [J]
Output:Meter,EnergyTransfer:Zone:DU_BT=SPACE FUNCTION_ST=DWELLING UNITS GENERAL_FL=BUILDING STORY 9_SCHG 2,hourly; !- [J]
Output:Meter:Cumulative,EnergyTransfer:Zone:DU_BT=SPACE FUNCTION_ST=DWELLING UNITS GENERAL_FL=BUILDING STORY 9_SCHG 2,hourly; !- [J]
Output:Meter,Heating:EnergyTransfer:Zone:DU_BT=SPACE FUNCTION_ST=DWELLING UNITS GENERAL_FL=BUILDING STORY 9_SCHG 2,hourly; !- [J]
Output:Meter:Cumulative,Heating:EnergyTransfer:Zone:DU_BT=SPACE FUNCTION_ST=DWELLING UNITS GENERAL_FL=BUILDING STORY 9_SCHG 2,hourly; !- [J]
Output:Meter,Cooling:EnergyTransfer:Zone:DU_BT=SPACE FUNCTION_ST=DWELLING UNITS GENERAL_FL=BUILDING STORY 9_SCHG 2,hourly; !- [J]
Output:Meter:Cumulative,Cooling:EnergyTransfer:Zone:DU_BT=SPACE FUNCTION_ST=DWELLING UNITS GENERAL_FL=BUILDING STORY 9_SCHG 2,hourly; !- [J]
Output:Meter,EnergyTransfer:Zone:DU_BT=SPACE FUNCTION_ST=DWELLING UNITS GENERAL_FL=BUILDING STORY 9_SCHG 3,hourly; !- [J]
Output:Meter:Cumulative,EnergyTransfer:Zone:DU_BT=SPACE FUNCTION_ST=DWELLING UNITS GENERAL_FL=BUILDING STORY 9_SCHG 3,hourly; !- [J]
Output:Meter,Heating:EnergyTransfer:Zone:DU_BT=SPACE FUNCTION_ST=DWELLING UNITS GENERAL_FL=BUILDING STORY 9_SCHG 3,hourly; !- [J]
Output:Meter:Cumulative,Heating:EnergyTransfer:Zone:DU_BT=SPACE FUNCTION_ST=DWELLING UNITS GENERAL_FL=BUILDING STORY 9_SCHG 3,hourly; !- [J]
Output:Meter,Cooling:EnergyTransfer:Zone:DU_BT=SPACE FUNCTION_ST=DWELLING UNITS GENERAL_FL=BUILDING STORY 9_SCHG 3,hourly; !- [J]
Output:Meter:Cumulative,Cooling:EnergyTransfer:Zone:DU_BT=SPACE FUNCTION_ST=DWELLING UNITS GENERAL_FL=BUILDING STORY 9_SCHG 3,hourly; !- [J]
Output:Meter,EnergyTransfer:Zone:DU_BT=SPACE FUNCTION_ST=DWELLING UNITS GENERAL_FL=BUILDING STORY 9_SCHG 4,hourly; !- [J]
Output:Meter:Cumulative,EnergyTransfer:Zone:DU_BT=SPACE FUNCTION_ST=DWELLING UNITS GENERAL_FL=BUILDING STORY 9_SCHG 4,hourly; !- [J]
Output:Meter,Heating:EnergyTransfer:Zone:DU_BT=SPACE FUNCTION_ST=DWELLING UNITS GENERAL_FL=BUILDING STORY 9_SCHG 4,hourly; !- [J]
Output:Meter:Cumulative,Heating:EnergyTransfer:Zone:DU_BT=SPACE FUNCTION_ST=DWELLING UNITS GENERAL_FL=BUILDING STORY 9_SCHG 4,hourly; !- [J]
Output:Meter,Cooling:EnergyTransfer:Zone:DU_BT=SPACE FUNCTION_ST=DWELLING UNITS GENERAL_FL=BUILDING STORY 9_SCHG 4,hourly; !- [J]
Output:Meter:Cumulative,Cooling:EnergyTransfer:Zone:DU_BT=SPACE FUNCTION_ST=DWELLING UNITS GENERAL_FL=BUILDING STORY 9_SCHG 4,hourly; !- [J]
Output:Meter,EnergyTransfer:Zone:DU_BT=SPACE FUNCTION_ST=DWELLING UNITS GENERAL_FL=BUILDING STORY 9_SCHG 5,hourly; !- [J]
Output:Meter:Cumulative,EnergyTransfer:Zone:DU_BT=SPACE FUNCTION_ST=DWELLING UNITS GENERAL_FL=BUILDING STORY 9_SCHG 5,hourly; !- [J]
Output:Meter,Heating:EnergyTransfer:Zone:DU_BT=SPACE FUNCTION_ST=DWELLING UNITS GENERAL_FL=BUILDING STORY 9_SCHG 5,hourly; !- [J]
Output:Meter:Cumulative,Heating:EnergyTransfer:Zone:DU_BT=SPACE FUNCTION_ST=DWELLING UNITS GENERAL_FL=BUILDING STORY 9_SCHG 5,hourly; !- [J]
Output:Meter,Cooling:EnergyTransfer:Zone:DU_BT=SPACE FUNCTION_ST=DWELLING UNITS GENERAL_FL=BUILDING STORY 9_SCHG 5,hourly; !- [J]
Output:Meter:Cumulative,Cooling:EnergyTransfer:Zone:DU_BT=SPACE FUNCTION_ST=DWELLING UNITS GENERAL_FL=BUILDING STORY 9_SCHG 5,hourly; !- [J]
Output:Meter,EnergyTransfer:Zone:DU_BT=SPACE FUNCTION_ST=DWELLING UNITS GENERAL_FL=BUILDING STORY 9_SCHG 6,hourly; !- [J]
Output:Meter:Cumulative,EnergyTransfer:Zone:DU_BT=SPACE FUNCTION_ST=DWELLING UNITS GENERAL_FL=BUILDING STORY 9_SCHG 6,hourly; !- [J]
Output:Meter,Heating:EnergyTransfer:Zone:DU_BT=SPACE FUNCTION_ST=DWELLING UNITS GENERAL_FL=BUILDING STORY 9_SCHG 6,hourly; !- [J]
Output:Meter:Cumulative,Heating:EnergyTransfer:Zone:DU_BT=SPACE FUNCTION_ST=DWELLING UNITS GENERAL_FL=BUILDING STORY 9_SCHG 6,hourly; !- [J]
Output:Meter,Cooling:EnergyTransfer:Zone:DU_BT=SPACE FUNCTION_ST=DWELLING UNITS GENERAL_FL=BUILDING STORY 9_SCHG 6,hourly; !- [J]
Output:Meter:Cumulative,Cooling:EnergyTransfer:Zone:DU_BT=SPACE FUNCTION_ST=DWELLING UNITS GENERAL_FL=BUILDING STORY 9_SCHG 6,hourly; !- [J]
Output:Meter,EnergyTransfer:Zone:DU_BT=SPACE FUNCTION_ST=DWELLING UNITS GENERAL_FL=BUILDING STORY 9_SCHG 7,hourly; !- [J]
Output:Meter:Cumulative,EnergyTransfer:Zone:DU_BT=SPACE FUNCTION_ST=DWELLING UNITS GENERAL_FL=BUILDING STORY 9_SCHG 7,hourly; !- [J]
Output:Meter,Heating:EnergyTransfer:Zone:DU_BT=SPACE FUNCTION_ST=DWELLING UNITS GENERAL_FL=BUILDING STORY 9_SCHG 7,hourly; !- [J]
Output:Meter:Cumulative,Heating:EnergyTransfer:Zone:DU_BT=SPACE FUNCTION_ST=DWELLING UNITS GENERAL_FL=BUILDING STORY 9_SCHG 7,hourly; !- [J]
Output:Meter,Cooling:EnergyTransfer:Zone:DU_BT=SPACE FUNCTION_ST=DWELLING UNITS GENERAL_FL=BUILDING STORY 9_SCHG 7,hourly; !- [J]
Output:Meter:Cumulative,Cooling:EnergyTransfer:Zone:DU_BT=SPACE FUNCTION_ST=DWELLING UNITS GENERAL_FL=BUILDING STORY 9_SCHG 7,hourly; !- [J]
Output:Meter,EnergyTransfer:Zone:WILD_ST=CORRIDOR/TRANSITION AREA OTHER-SCH-G_FL=BUILDING STORY 10_SCH=G,hourly; !- [J]
Output:Meter:Cumulative,EnergyTransfer:Zone:WILD_ST=CORRIDOR/TRANSITION AREA OTHER-SCH-G_FL=BUILDING STORY 10_SCH=G,hourly; !- [J]
Output:Meter,Heating:EnergyTransfer:Zone:WILD_ST=CORRIDOR/TRANSITION AREA OTHER-SCH-G_FL=BUILDING STORY 10_SCH=G,hourly; !- [J]
Output:Meter:Cumulative,Heating:EnergyTransfer:Zone:WILD_ST=CORRIDOR/TRANSITION AREA OTHER-SCH-G_FL=BUILDING STORY 10_SCH=G,hourly; !- [J]
Output:Meter,Cooling:EnergyTransfer:Zone:WILD_ST=CORRIDOR/TRANSITION AREA OTHER-SCH-G_FL=BUILDING STORY 10_SCH=G,hourly; !- [J]
Output:Meter:Cumulative,Cooling:EnergyTransfer:Zone:WILD_ST=CORRIDOR/TRANSITION AREA OTHER-SCH-G_FL=BUILDING STORY 10_SCH=G,hourly; !- [J]
Output:Meter,EnergyTransfer:Zone:WILD_ST=CORRIDOR/TRANSITION AREA OTHER-SCH-G_FL=BUILDING STORY 1_SCH=G,hourly; !- [J]
Output:Meter:Cumulative,EnergyTransfer:Zone:WILD_ST=CORRIDOR/TRANSITION AREA OTHER-SCH-G_FL=BUILDING STORY 1_SCH=G,hourly; !- [J]
Output:Meter,Heating:EnergyTransfer:Zone:WILD_ST=CORRIDOR/TRANSITION AREA OTHER-SCH-G_FL=BUILDING STORY 1_SCH=G,hourly; !- [J]
Output:Meter:Cumulative,Heating:EnergyTransfer:Zone:WILD_ST=CORRIDOR/TRANSITION AREA OTHER-SCH-G_FL=BUILDING STORY 1_SCH=G,hourly; !- [J]
Output:Meter,Cooling:EnergyTransfer:Zone:WILD_ST=CORRIDOR/TRANSITION AREA OTHER-SCH-G_FL=BUILDING STORY 1_SCH=G,hourly; !- [J]
Output:Meter:Cumulative,Cooling:EnergyTransfer:Zone:WILD_ST=CORRIDOR/TRANSITION AREA OTHER-SCH-G_FL=BUILDING STORY 1_SCH=G,hourly; !- [J]
Output:Meter,EnergyTransfer:Zone:WILD_ST=CORRIDOR/TRANSITION AREA OTHER-SCH-G_FL=BUILDING STORY 2_SCH=G,hourly; !- [J]
Output:Meter:Cumulative,EnergyTransfer:Zone:WILD_ST=CORRIDOR/TRANSITION AREA OTHER-SCH-G_FL=BUILDING STORY 2_SCH=G,hourly; !- [J]
Output:Meter,Heating:EnergyTransfer:Zone:WILD_ST=CORRIDOR/TRANSITION AREA OTHER-SCH-G_FL=BUILDING STORY 2_SCH=G,hourly; !- [J]
Output:Meter:Cumulative,Heating:EnergyTransfer:Zone:WILD_ST=CORRIDOR/TRANSITION AREA OTHER-SCH-G_FL=BUILDING STORY 2_SCH=G,hourly; !- [J]
Output:Meter,Cooling:EnergyTransfer:Zone:WILD_ST=CORRIDOR/TRANSITION AREA OTHER-SCH-G_FL=BUILDING STORY 2_SCH=G,hourly; !- [J]
Output:Meter:Cumulative,Cooling:EnergyTransfer:Zone:WILD_ST=CORRIDOR/TRANSITION AREA OTHER-SCH-G_FL=BUILDING STORY 2_SCH=G,hourly; !- [J]
Output:Meter,EnergyTransfer:Zone:WILD_ST=CORRIDOR/TRANSITION AREA OTHER-SCH-G_FL=BUILDING STORY 3_SCH=G,hourly; !- [J]
Output:Meter:Cumulative,EnergyTransfer:Zone:WILD_ST=CORRIDOR/TRANSITION AREA OTHER-SCH-G_FL=BUILDING STORY 3_SCH=G,hourly; !- [J]
Output:Meter,Heating:EnergyTransfer:Zone:WILD_ST=CORRIDOR/TRANSITION AREA OTHER-SCH-G_FL=BUILDING STORY 3_SCH=G,hourly; !- [J]
Output:Meter:Cumulative,Heating:EnergyTransfer:Zone:WILD_ST=CORRIDOR/TRANSITION AREA OTHER-SCH-G_FL=BUILDING STORY 3_SCH=G,hourly; !- [J]
Output:Meter,Cooling:EnergyTransfer:Zone:WILD_ST=CORRIDOR/TRANSITION AREA OTHER-SCH-G_FL=BUILDING STORY 3_SCH=G,hourly; !- [J]
Output:Meter:Cumulative,Cooling:EnergyTransfer:Zone:WILD_ST=CORRIDOR/TRANSITION AREA OTHER-SCH-G_FL=BUILDING STORY 3_SCH=G,hourly; !- [J]
Output:Meter,EnergyTransfer:Zone:WILD_ST=CORRIDOR/TRANSITION AREA OTHER-SCH-G_FL=BUILDING STORY 4_SCH=G,hourly; !- [J]
Output:Meter:Cumulative,EnergyTransfer:Zone:WILD_ST=CORRIDOR/TRANSITION AREA OTHER-SCH-G_FL=BUILDING STORY 4_SCH=G,hourly; !- [J]
Output:Meter,Heating:EnergyTransfer:Zone:WILD_ST=CORRIDOR/TRANSITION AREA OTHER-SCH-G_FL=BUILDING STORY 4_SCH=G,hourly; !- [J]
Output:Meter:Cumulative,Heating:EnergyTransfer:Zone:WILD_ST=CORRIDOR/TRANSITION AREA OTHER-SCH-G_FL=BUILDING STORY 4_SCH=G,hourly; !- [J]
Output:Meter,Cooling:EnergyTransfer:Zone:WILD_ST=CORRIDOR/TRANSITION AREA OTHER-SCH-G_FL=BUILDING STORY 4_SCH=G,hourly; !- [J]
Output:Meter:Cumulative,Cooling:EnergyTransfer:Zone:WILD_ST=CORRIDOR/TRANSITION AREA OTHER-SCH-G_FL=BUILDING STORY 4_SCH=G,hourly; !- [J]
Output:Meter,EnergyTransfer:Zone:WILD_ST=CORRIDOR/TRANSITION AREA OTHER-SCH-G_FL=BUILDING STORY 5_SCH=G,hourly; !- [J]
Output:Meter:Cumulative,EnergyTransfer:Zone:WILD_ST=CORRIDOR/TRANSITION AREA OTHER-SCH-G_FL=BUILDING STORY 5_SCH=G,hourly; !- [J]
Output:Meter,Heating:EnergyTransfer:Zone:WILD_ST=CORRIDOR/TRANSITION AREA OTHER-SCH-G_FL=BUILDING STORY 5_SCH=G,hourly; !- [J]
Output:Meter:Cumulative,Heating:EnergyTransfer:Zone:WILD_ST=CORRIDOR/TRANSITION AREA OTHER-SCH-G_FL=BUILDING STORY 5_SCH=G,hourly; !- [J]
Output:Meter,Cooling:EnergyTransfer:Zone:WILD_ST=CORRIDOR/TRANSITION AREA OTHER-SCH-G_FL=BUILDING STORY 5_SCH=G,hourly; !- [J]
Output:Meter:Cumulative,Cooling:EnergyTransfer:Zone:WILD_ST=CORRIDOR/TRANSITION AREA OTHER-SCH-G_FL=BUILDING STORY 5_SCH=G,hourly; !- [J]
Output:Meter,EnergyTransfer:Zone:WILD_ST=CORRIDOR/TRANSITION AREA OTHER-SCH-G_FL=BUILDING STORY 6_SCH=G,hourly; !- [J]
Output:Meter:Cumulative,EnergyTransfer:Zone:WILD_ST=CORRIDOR/TRANSITION AREA OTHER-SCH-G_FL=BUILDING STORY 6_SCH=G,hourly; !- [J]
Output:Meter,Heating:EnergyTransfer:Zone:WILD_ST=CORRIDOR/TRANSITION AREA OTHER-SCH-G_FL=BUILDING STORY 6_SCH=G,hourly; !- [J]
Output:Meter:Cumulative,Heating:EnergyTransfer:Zone:WILD_ST=CORRIDOR/TRANSITION AREA OTHER-SCH-G_FL=BUILDING STORY 6_SCH=G,hourly; !- [J]
Output:Meter,Cooling:EnergyTransfer:Zone:WILD_ST=CORRIDOR/TRANSITION AREA OTHER-SCH-G_FL=BUILDING STORY 6_SCH=G,hourly; !- [J]
Output:Meter:Cumulative,Cooling:EnergyTransfer:Zone:WILD_ST=CORRIDOR/TRANSITION AREA OTHER-SCH-G_FL=BUILDING STORY 6_SCH=G,hourly; !- [J]
Output:Meter,EnergyTransfer:Zone:WILD_ST=CORRIDOR/TRANSITION AREA OTHER-SCH-G_FL=BUILDING STORY 7_SCH=G,hourly; !- [J]
Output:Meter:Cumulative,EnergyTransfer:Zone:WILD_ST=CORRIDOR/TRANSITION AREA OTHER-SCH-G_FL=BUILDING STORY 7_SCH=G,hourly; !- [J]
Output:Meter,Heating:EnergyTransfer:Zone:WILD_ST=CORRIDOR/TRANSITION AREA OTHER-SCH-G_FL=BUILDING STORY 7_SCH=G,hourly; !- [J]
Output:Meter:Cumulative,Heating:EnergyTransfer:Zone:WILD_ST=CORRIDOR/TRANSITION AREA OTHER-SCH-G_FL=BUILDING STORY 7_SCH=G,hourly; !- [J]
Output:Meter,Cooling:EnergyTransfer:Zone:WILD_ST=CORRIDOR/TRANSITION AREA OTHER-SCH-G_FL=BUILDING STORY 7_SCH=G,hourly; !- [J]
Output:Meter:Cumulative,Cooling:EnergyTransfer:Zone:WILD_ST=CORRIDOR/TRANSITION AREA OTHER-SCH-G_FL=BUILDING STORY 7_SCH=G,hourly; !- [J]
Output:Meter,EnergyTransfer:Zone:WILD_ST=CORRIDOR/TRANSITION AREA OTHER-SCH-G_FL=BUILDING STORY 8_SCH=G,hourly; !- [J]
Output:Meter:Cumulative,EnergyTransfer:Zone:WILD_ST=CORRIDOR/TRANSITION AREA OTHER-SCH-G_FL=BUILDING STORY 8_SCH=G,hourly; !- [J]
Output:Meter,Heating:EnergyTransfer:Zone:WILD_ST=CORRIDOR/TRANSITION AREA OTHER-SCH-G_FL=BUILDING STORY 8_SCH=G,hourly; !- [J]
Output:Meter:Cumulative,Heating:EnergyTransfer:Zone:WILD_ST=CORRIDOR/TRANSITION AREA OTHER-SCH-G_FL=BUILDING STORY 8_SCH=G,hourly; !- [J]
Output:Meter,Cooling:EnergyTransfer:Zone:WILD_ST=CORRIDOR/TRANSITION AREA OTHER-SCH-G_FL=BUILDING STORY 8_SCH=G,hourly; !- [J]
Output:Meter:Cumulative,Cooling:EnergyTransfer:Zone:WILD_ST=CORRIDOR/TRANSITION AREA OTHER-SCH-G_FL=BUILDING STORY 8_SCH=G,hourly; !- [J]
Output:Meter,EnergyTransfer:Zone:WILD_ST=CORRIDOR/TRANSITION AREA OTHER-SCH-G_FL=BUILDING STORY 9_SCH=G,hourly; !- [J]
Output:Meter:Cumulative,EnergyTransfer:Zone:WILD_ST=CORRIDOR/TRANSITION AREA OTHER-SCH-G_FL=BUILDING STORY 9_SCH=G,hourly; !- [J]
Output:Meter,Heating:EnergyTransfer:Zone:WILD_ST=CORRIDOR/TRANSITION AREA OTHER-SCH-G_FL=BUILDING STORY 9_SCH=G,hourly; !- [J]
Output:Meter:Cumulative,Heating:EnergyTransfer:Zone:WILD_ST=CORRIDOR/TRANSITION AREA OTHER-SCH-G_FL=BUILDING STORY 9_SCH=G,hourly; !- [J]
Output:Meter,Cooling:EnergyTransfer:Zone:WILD_ST=CORRIDOR/TRANSITION AREA OTHER-SCH-G_FL=BUILDING STORY 9_SCH=G,hourly; !- [J]
Output:Meter:Cumulative,Cooling:EnergyTransfer:Zone:WILD_ST=CORRIDOR/TRANSITION AREA OTHER-SCH-G_FL=BUILDING STORY 9_SCH=G,hourly; !- [J]
Output:Meter,EnergyTransfer:Plant,hourly; !- [J]
Output:Meter:Cumulative,EnergyTransfer:Plant,hourly; !- [J]
Output:Meter,WaterSystems:EnergyTransfer,hourly; !- [J]
Output:Meter:Cumulative,WaterSystems:EnergyTransfer,hourly; !- [J]
Output:Meter,General:WaterSystems:EnergyTransfer,hourly; !- [J]
Output:Meter:Cumulative,General:WaterSystems:EnergyTransfer,hourly; !- [J]
Output:Meter,ElectricityPurchased:Facility,hourly; !- [J]
Output:Meter:Cumulative,ElectricityPurchased:Facility,hourly; !- [J]
Output:Meter,ElectricityPurchased:Plant,hourly; !- [J]
Output:Meter:Cumulative,ElectricityPurchased:Plant,hourly; !- [J]
Output:Meter,Cogeneration:ElectricityPurchased,hourly; !- [J]
Output:Meter:Cumulative,Cogeneration:ElectricityPurchased,hourly; !- [J]
Output:Meter,ElectricitySurplusSold:Facility,hourly; !- [J]
Output:Meter:Cumulative,ElectricitySurplusSold:Facility,hourly; !- [J]
Output:Meter,ElectricitySurplusSold:Plant,hourly; !- [J]
Output:Meter:Cumulative,ElectricitySurplusSold:Plant,hourly; !- [J]
Output:Meter,Cogeneration:ElectricitySurplusSold,hourly; !- [J]
Output:Meter:Cumulative,Cogeneration:ElectricitySurplusSold,hourly; !- [J]
Output:Meter,ElectricityNet:Facility,hourly; !- [J]
Output:Meter:Cumulative,ElectricityNet:Facility,hourly; !- [J]
Output:Meter,ElectricityNet:Plant,hourly; !- [J]
Output:Meter:Cumulative,ElectricityNet:Plant,hourly; !- [J]
Output:Meter,Cogeneration:ElectricityNet,hourly; !- [J]
Output:Meter:Cumulative,Cogeneration:ElectricityNet,hourly; !- [J]
Output:Meter,EnergyTransfer:HVAC,hourly; !- [J]
Output:Meter:Cumulative,EnergyTransfer:HVAC,hourly; !- [J]
Output:Meter,HeatRecoveryForHeating:EnergyTransfer,hourly; !- [J]
Output:Meter:Cumulative,HeatRecoveryForHeating:EnergyTransfer,hourly; !- [J]
Output:Meter,HeatRecoveryForCooling:EnergyTransfer,hourly; !- [J]
Output:Meter:Cumulative,HeatRecoveryForCooling:EnergyTransfer,hourly; !- [J]
Output:Meter,Electricity:HVAC,hourly; !- [J]
Output:Meter:Cumulative,Electricity:HVAC,hourly; !- [J]
Output:Meter,HeatRecovery:Electricity,hourly; !- [J]
Output:Meter:Cumulative,HeatRecovery:Electricity,hourly; !- [J]
Output:Meter,Fans:Electricity,hourly; !- [J]
Output:Meter:Cumulative,Fans:Electricity,hourly; !- [J]
Output:Meter,General:Fans:Electricity,hourly; !- [J]
Output:Meter:Cumulative,General:Fans:Electricity,hourly; !- [J]
Output:Meter,HeatingCoils:EnergyTransfer,hourly; !- [J]
Output:Meter:Cumulative,HeatingCoils:EnergyTransfer,hourly; !- [J]
Output:Meter,Heating:Electricity,hourly; !- [J]
Output:Meter:Cumulative,Heating:Electricity,hourly; !- [J]
Output:Meter,Baseboard:EnergyTransfer,hourly; !- [J]
Output:Meter:Cumulative,Baseboard:EnergyTransfer,hourly; !- [J]
Output:Meter,PlantLoopHeatingDemand:HVAC,hourly; !- [J]
Output:Meter:Cumulative,PlantLoopHeatingDemand:HVAC,hourly; !- [J]
Output:Meter,Baseboard:PlantLoopHeatingDemand,hourly; !- [J]
Output:Meter:Cumulative,Baseboard:PlantLoopHeatingDemand,hourly; !- [J]
Output:Meter,CoolingCoils:EnergyTransfer,hourly; !- [J]
Output:Meter:Cumulative,CoolingCoils:EnergyTransfer,hourly; !- [J]
Output:Meter,Cooling:Electricity,hourly; !- [J]
Output:Meter:Cumulative,Cooling:Electricity,hourly; !- [J]
Output:Meter,HeatingCoils:PlantLoopHeatingDemand,hourly; !- [J]
Output:Meter:Cumulative,HeatingCoils:PlantLoopHeatingDemand,hourly; !- [J]
Output:Meter,PlantLoopCoolingDemand:Facility,hourly; !- [J]
Output:Meter:Cumulative,PlantLoopCoolingDemand:Facility,hourly; !- [J]
Output:Meter,PlantLoopCoolingDemand:HVAC,hourly; !- [J]
Output:Meter:Cumulative,PlantLoopCoolingDemand:HVAC,hourly; !- [J]
Output:Meter,CoolingCoils:PlantLoopCoolingDemand,hourly; !- [J]
Output:Meter:Cumulative,CoolingCoils:PlantLoopCoolingDemand,hourly; !- [J]
Output:Meter,General:Cooling:Electricity,hourly; !- [J]
Output:Meter:Cumulative,General:Cooling:Electricity,hourly; !- [J]
Output:Meter,Chillers:EnergyTransfer,hourly; !- [J]
Output:Meter:Cumulative,Chillers:EnergyTransfer,hourly; !- [J]
Output:Meter,HeatRejection:EnergyTransfer,hourly; !- [J]
Output:Meter:Cumulative,HeatRejection:EnergyTransfer,hourly; !- [J]
Output:Meter,HeatRejection:Electricity,hourly; !- [J]
Output:Meter:Cumulative,HeatRejection:Electricity,hourly; !- [J]
Output:Meter,General:HeatRejection:Electricity,hourly; !- [J]
Output:Meter:Cumulative,General:HeatRejection:Electricity,hourly; !- [J]
Output:Meter,HeatRejection:Water,hourly; !- [m3]
Output:Meter:Cumulative,HeatRejection:Water,hourly; !- [m3]
Output:Meter,HeatRejection:MainsWater,hourly; !- [m3]
Output:Meter:Cumulative,HeatRejection:MainsWater,hourly; !- [m3]
Output:Meter,Boilers:EnergyTransfer,hourly; !- [J]
Output:Meter:Cumulative,Boilers:EnergyTransfer,hourly; !- [J]
Output:Meter,FuelOil#2:Facility,hourly; !- [J]
Output:Meter:Cumulative,FuelOil#2:Facility,hourly; !- [J]
Output:Meter,FuelOil#2:Plant,hourly; !- [J]
Output:Meter:Cumulative,FuelOil#2:Plant,hourly; !- [J]
Output:Meter,Heating:FuelOil#2,hourly; !- [J]
Output:Meter:Cumulative,Heating:FuelOil#2,hourly; !- [J]
Output:Meter,General:Heating:FuelOil#2,hourly; !- [J]
Output:Meter:Cumulative,General:Heating:FuelOil#2,hourly; !- [J]
Output:Meter,Boiler Parasitic:Heating:Electricity,hourly; !- [J]
Output:Meter:Cumulative,Boiler Parasitic:Heating:Electricity,hourly; !- [J]
Output:Meter,Pumps:Electricity,hourly; !- [J]
Output:Meter:Cumulative,Pumps:Electricity,hourly; !- [J]
Output:Meter,Carbon Equivalent:Facility,hourly; !- [kg]
Output:Meter:Cumulative,Carbon Equivalent:Facility,hourly; !- [kg]
Output:Meter,CarbonEquivalentEmissions:Carbon Equivalent,hourly; !- [kg]
Output:Meter:Cumulative,CarbonEquivalentEmissions:Carbon Equivalent,hourly; !- [kg]
