Program Version,EnergyPlus, Version 8.9.0-eba93e8e1b, YMD=2019.08.13 14:50
! <Version>, Version ID
 Version, 8.9
! <Timesteps per Hour>, #TimeSteps, Minutes per TimeStep {minutes}
 Timesteps per Hour,  1, 60
! <System Convergence Limits>, Minimum System TimeStep {minutes}, Max HVAC Iterations, Minimum Plant Iterations, Maximum Plant Iterations
 System Convergence Limits, 5, 25, 2, 8
! <Simulation Control>, Do Zone Sizing, Do System Sizing, Do Plant Sizing, Do Design Days, Do Weather Simulation, Do HVAC Sizing Simulation
 Simulation Control, Yes, Yes, Yes, No, Yes, No
! <Output Reporting Tolerances>, Tolerance for Time Heating Setpoint Not Met, Tolerance for Zone Cooling Setpoint Not Met Time
 Output Reporting Tolerances, 1.000, 1.000, 
! <Site:GroundTemperature:BuildingSurface>,Jan{C},Feb{C},Mar{C},Apr{C},May{C},Jun{C},Jul{C},Aug{C},Sep{C},Oct{C},Nov{C},Dec{C}
 Site:GroundTemperature:BuildingSurface,  19.53,  19.50,  19.54,  19.60,  20.00,  21.64,  22.23,  22.38,  21.45,  20.12,  19.80,  19.63
! <Site:GroundTemperature:FCfactorMethod>,Jan{C},Feb{C},Mar{C},Apr{C},May{C},Jun{C},Jul{C},Aug{C},Sep{C},Oct{C},Nov{C},Dec{C}
 Site:GroundTemperature:FCfactorMethod, -21.09, -22.83, -19.75, -14.93,  -2.32,   7.41,  13.97,  15.97,  12.57,   5.01,  -5.08, -14.45
! <Site:GroundTemperature:Shallow>,Jan{C},Feb{C},Mar{C},Apr{C},May{C},Jun{C},Jul{C},Aug{C},Sep{C},Oct{C},Nov{C},Dec{C}
 Site:GroundTemperature:Shallow,  13.00,  13.00,  13.00,  13.00,  13.00,  13.00,  13.00,  13.00,  13.00,  13.00,  13.00,  13.00
! <Site:GroundTemperature:Deep>,Jan{C},Feb{C},Mar{C},Apr{C},May{C},Jun{C},Jul{C},Aug{C},Sep{C},Oct{C},Nov{C},Dec{C}
 Site:GroundTemperature:Deep,  16.00,  16.00,  16.00,  16.00,  16.00,  16.00,  16.00,  16.00,  16.00,  16.00,  16.00,  16.00
! <Site:GroundReflectance>,Jan{dimensionless},Feb{dimensionless},Mar{dimensionless},Apr{dimensionless},May{dimensionless},Jun{dimensionless},Jul{dimensionless},Aug{dimensionless},Sep{dimensionless},Oct{dimensionless},Nov{dimensionless},Dec{dimensionless}
 Site:GroundReflectance,  0.20,  0.20,  0.20,  0.20,  0.20,  0.20,  0.20,  0.20,  0.20,  0.20,  0.20,  0.20
! <Site:GroundReflectance:SnowModifier>, Normal, Daylighting {dimensionless}
 Site:GroundReflectance:SnowModifier,   1.000,   1.000
! <Site:GroundReflectance:Snow>,Jan{dimensionless},Feb{dimensionless},Mar{dimensionless},Apr{dimensionless},May{dimensionless},Jun{dimensionless},Jul{dimensionless},Aug{dimensionless},Sep{dimensionless},Oct{dimensionless},Nov{dimensionless},Dec{dimensionless}
 Site:GroundReflectance:Snow,  0.20,  0.20,  0.20,  0.20,  0.20,  0.20,  0.20,  0.20,  0.20,  0.20,  0.20,  0.20
! <Site:GroundReflectance:Snow:Daylighting>,Jan{dimensionless},Feb{dimensionless},Mar{dimensionless},Apr{dimensionless},May{dimensionless},Jun{dimensionless},Jul{dimensionless},Aug{dimensionless},Sep{dimensionless},Oct{dimensionless},Nov{dimensionless},Dec{dimensionless}
 Site:GroundReflectance:Snow:Daylighting,  0.20,  0.20,  0.20,  0.20,  0.20,  0.20,  0.20,  0.20,  0.20,  0.20,  0.20,  0.20
! <Environment:Weather Station>,Wind Sensor Height Above Ground {m},Wind Speed Profile Exponent {},Wind Speed Profile Boundary Layer Thickness {m},Air Temperature Sensor Height Above Ground {m},Wind Speed Modifier Coefficient-Internal,Temperature Modifier Coefficient-Internal
Environment:Weather Station,10.000,0.140,270.000,1.500,1.586,9.750E-003
! <Site:Location>, Location Name, Latitude {N+/S- Deg}, Longitude {E+/W- Deg},  Time Zone Number {GMT+/-}, Elevation {m},  Standard Pressure at Elevation {Pa}, Standard RhoAir at Elevation
Site:Location,Yellowknife AP NT CAN CWEC2016 WMO#=719360,62.46,-114.44,-7.00,205.70,98878,1.1752
! <Building Information>, Building Name,North Axis {deg},Terrain,  Loads Convergence Tolerance Value,Temperature Convergence Tolerance Value,  Solar Distribution,Maximum Number of Warmup Days,Minimum Number of Warmup Days
 Building Information,HighriseApartment-CAN_NT_Yellowknife.AP.719360_CWEC2016.epw created: 2019-07-24 21:30:22 +0000,0.000,City,4.00000E-002,0.20000,FullInteriorAndExterior,25,6
! <Inside Convection Algorithm>, Algorithm {Simple | TARP | CeilingDiffuser | AdaptiveConvectionAlgorithm}
Inside Convection Algorithm,TARP
! <Outside Convection Algorithm>, Algorithm {SimpleCombined | TARP | MoWitt | DOE-2 | AdaptiveConvectionAlgorithm}
Outside Convection Algorithm,TARP
! <Sky Radiance Distribution>, Value {Anisotropic}
Sky Radiance Distribution,Anisotropic
! <Zone Air Solution Algorithm>, Value {ThirdOrderBackwardDifference | AnalyticalSolution | EulerMethod}
 Zone Air Solution Algorithm, ThirdOrderBackwardDifference
! <Zone Air Carbon Dioxide Balance Simulation>, Simulation {Yes/No}, Carbon Dioxide Concentration
 Zone Air Carbon Dioxide Balance Simulation, No,N/A
! <Zone Air Generic Contaminant Balance Simulation>, Simulation {Yes/No}, Generic Contaminant Concentration
 Zone Air Generic Contaminant Balance Simulation, No,N/A
! <Zone Air Mass Flow Balance Simulation>, Enforce Mass Balance, Adjust Zone Mixing, Adjust Zone Infiltration {AddInfiltration | AdjustInfiltration | None}, Infiltration Zones {MixingSourceZonesOnly | AllZones}
 Zone Air Mass Flow Balance Simulation, No,N/A,N/A,N/A
! <HVACSystemRootFindingAlgorithm>, Value {RegulaFalsi | Bisection | BisectionThenRegulaFalsi | RegulaFalsiThenBisection}
 HVACSystemRootFindingAlgorithm, RegulaFalsi
! <Environment:Site Atmospheric Variation>,Wind Speed Profile Exponent {},Wind Speed Profile Boundary Layer Thickness {m},Air Temperature Gradient Coefficient {K/m}
Environment:Site Atmospheric Variation,0.330,460.000,6.500000E-003
! <Surface Geometry>,Starting Corner,Vertex Input Direction,Coordinate System,Daylight Reference Point Coordinate System,Rectangular (Simple) Surface Coordinate System
 Surface Geometry,UpperLeftCorner,Counterclockwise,RelativeCoordinateSystem,RelativeCoordinateSystem,RelativeToZoneOrigin
! <Surface Heat Transfer Algorithm>, Value {CTF - ConductionTransferFunction | EMPD - MoisturePenetrationDepthConductionTransferFunction | CondFD - ConductionFiniteDifference | HAMT - CombinedHeatAndMoistureFiniteElement} - Description,Inside Surface Max Temperature Limit{C}, Surface Convection Coefficient Lower Limit {W/m2-K}, Surface Convection Coefficient Upper Limit {W/m2-K}
Surface Heat Transfer Algorithm, CTF - ConductionTransferFunction,200,0.10,1000.0
! <Shading Summary>, Number of Fixed Detached Shades, Number of Building Detached Shades, Number of Attached Shades
 Shading Summary,0,0,80
! <Zone Summary>, Number of Zones, Number of Zone Surfaces, Number of SubSurfaces
 Zone Summary,90,740,140
! <Zone Information>,Zone Name,North Axis {deg},Origin X-Coordinate {m},Origin Y-Coordinate {m},Origin Z-Coordinate {m},Centroid X-Coordinate {m},Centroid Y-Coordinate {m},Centroid Z-Coordinate {m},Type,Zone Multiplier,Zone List Multiplier,Minimum X {m},Maximum X {m},Minimum Y {m},Maximum Y {m},Minimum Z {m},Maximum Z {m},Ceiling Height {m},Volume {m3},Zone Inside Convection Algorithm {Simple-Detailed-CeilingDiffuser-TrombeWall},Zone Outside Convection Algorithm {Simple-Detailed-Tarp-MoWitt-DOE-2-BLAST}, Floor Area {m2},Exterior Gross Wall Area {m2},Exterior Net Wall Area {m2},Exterior Window Area {m2}, Number of Surfaces, Number of SubSurfaces, Number of Shading SubSurfaces,  Part of Total Building Area
 Zone Information, ALL_ST=OFFICE ENCLOSED <= 25 M2_FL=BUILDING STORY 1_SCH=A,0.0,34.75,0.00,0.00,40.54,3.81,1.52,1,1,1,34.75,46.33,0.00,7.62,0.00,3.05,3.05,268.96,TARP,TARP,88.25,58.52,52.67,5.85,6,2,2,Yes
 Zone Information, DU_BT=SPACE FUNCTION_ST=DWELLING UNITS GENERAL_FL=BUILDING STORY 10_SCHG,0.0,11.58,0.00,27.43,17.37,3.81,28.95,1,1,1,11.58,23.16,0.00,7.62,27.43,30.48,3.05,268.96,TARP,TARP,88.25,35.30,31.77,3.53,6,1,2,Yes
 Zone Information, DU_BT=SPACE FUNCTION_ST=DWELLING UNITS GENERAL_FL=BUILDING STORY 10_SCHG 1,0.0,34.75,9.30,27.43,40.54,13.11,28.95,1,1,1,34.75,46.33,9.30,16.92,27.43,30.48,3.05,268.96,TARP,TARP,88.25,58.52,52.67,5.85,6,2,0,Yes
 Zone Information, DU_BT=SPACE FUNCTION_ST=DWELLING UNITS GENERAL_FL=BUILDING STORY 10_SCHG 2,0.0,23.16,9.30,27.43,28.95,13.11,28.95,1,1,1,23.16,34.75,9.30,16.92,27.43,30.48,3.05,268.97,TARP,TARP,88.25,35.30,31.77,3.53,6,1,0,Yes
 Zone Information, DU_BT=SPACE FUNCTION_ST=DWELLING UNITS GENERAL_FL=BUILDING STORY 10_SCHG 3,0.0,23.16,0.00,27.43,28.95,3.81,28.95,1,1,1,23.16,34.75,0.00,7.62,27.43,30.48,3.05,268.97,TARP,TARP,88.25,35.30,31.77,3.53,6,1,2,Yes
 Zone Information, DU_BT=SPACE FUNCTION_ST=DWELLING UNITS GENERAL_FL=BUILDING STORY 10_SCHG 4,0.0,0.00,9.30,27.43,5.79,13.11,28.95,1,1,1,0.00,11.58,9.30,16.92,27.43,30.48,3.05,268.96,TARP,TARP,88.25,58.52,52.67,5.85,6,2,0,Yes
 Zone Information, DU_BT=SPACE FUNCTION_ST=DWELLING UNITS GENERAL_FL=BUILDING STORY 10_SCHG 5,0.0,0.00,0.00,27.43,5.79,3.81,28.95,1,1,1,0.00,11.58,0.00,7.62,27.43,30.48,3.05,268.96,TARP,TARP,88.25,58.52,52.67,5.85,6,2,2,Yes
 Zone Information, DU_BT=SPACE FUNCTION_ST=DWELLING UNITS GENERAL_FL=BUILDING STORY 10_SCHG 6,0.0,11.58,9.30,27.43,17.37,13.11,28.95,1,1,1,11.58,23.16,9.30,16.92,27.43,30.48,3.05,268.96,TARP,TARP,88.25,35.30,31.77,3.53,6,1,0,Yes
 Zone Information, DU_BT=SPACE FUNCTION_ST=DWELLING UNITS GENERAL_FL=BUILDING STORY 10_SCHG 7,0.0,34.75,0.00,27.43,40.54,3.81,28.95,1,1,1,34.75,46.33,0.00,7.62,27.43,30.48,3.05,268.96,TARP,TARP,88.25,58.52,52.67,5.85,6,2,2,Yes
 Zone Information, DU_BT=SPACE FUNCTION_ST=DWELLING UNITS GENERAL_FL=BUILDING STORY 1_SCHG,0.0,34.75,9.30,0.00,40.54,13.11,1.52,1,1,1,34.75,46.33,9.30,16.92,0.00,3.05,3.05,268.96,TARP,TARP,88.25,58.52,52.67,5.85,6,2,0,Yes
 Zone Information, DU_BT=SPACE FUNCTION_ST=DWELLING UNITS GENERAL_FL=BUILDING STORY 1_SCHG 1,0.0,0.00,0.00,0.00,5.79,3.81,1.52,1,1,1,0.00,11.58,0.00,7.62,0.00,3.05,3.05,268.96,TARP,TARP,88.25,58.52,52.67,5.85,6,2,2,Yes
 Zone Information, DU_BT=SPACE FUNCTION_ST=DWELLING UNITS GENERAL_FL=BUILDING STORY 1_SCHG 2,0.0,11.58,9.30,0.00,17.37,13.11,1.52,1,1,1,11.58,23.16,9.30,16.92,0.00,3.05,3.05,268.96,TARP,TARP,88.25,35.30,31.77,3.53,6,1,0,Yes
 Zone Information, DU_BT=SPACE FUNCTION_ST=DWELLING UNITS GENERAL_FL=BUILDING STORY 1_SCHG 3,0.0,11.58,0.00,0.00,17.37,3.81,1.52,1,1,1,11.58,23.16,0.00,7.62,0.00,3.05,3.05,268.96,TARP,TARP,88.25,35.30,31.77,3.53,6,1,2,Yes
 Zone Information, DU_BT=SPACE FUNCTION_ST=DWELLING UNITS GENERAL_FL=BUILDING STORY 1_SCHG 4,0.0,0.00,9.30,0.00,5.79,13.11,1.52,1,1,1,0.00,11.58,9.30,16.92,0.00,3.05,3.05,268.96,TARP,TARP,88.25,58.52,52.67,5.85,6,2,0,Yes
 Zone Information, DU_BT=SPACE FUNCTION_ST=DWELLING UNITS GENERAL_FL=BUILDING STORY 1_SCHG 5,0.0,23.16,9.30,0.00,28.95,13.11,1.52,1,1,1,23.16,34.75,9.30,16.92,0.00,3.05,3.05,268.97,TARP,TARP,88.25,35.30,31.77,3.53,6,1,0,Yes
 Zone Information, DU_BT=SPACE FUNCTION_ST=DWELLING UNITS GENERAL_FL=BUILDING STORY 1_SCHG 6,0.0,23.16,0.00,0.00,28.95,3.81,1.52,1,1,1,23.16,34.75,0.00,7.62,0.00,3.05,3.05,268.97,TARP,TARP,88.25,35.30,31.77,3.53,6,1,2,Yes
 Zone Information, DU_BT=SPACE FUNCTION_ST=DWELLING UNITS GENERAL_FL=BUILDING STORY 2_SCHG,0.0,23.16,9.30,3.05,28.95,13.11,4.57,1,1,1,23.16,34.75,9.30,16.92,3.05,6.10,3.05,268.97,TARP,TARP,88.25,35.30,31.77,3.53,6,1,0,Yes
 Zone Information, DU_BT=SPACE FUNCTION_ST=DWELLING UNITS GENERAL_FL=BUILDING STORY 2_SCHG 1,0.0,23.16,0.00,3.05,28.95,3.81,4.57,1,1,1,23.16,34.75,0.00,7.62,3.05,6.10,3.05,268.97,TARP,TARP,88.25,35.30,31.77,3.53,6,1,2,Yes
 Zone Information, DU_BT=SPACE FUNCTION_ST=DWELLING UNITS GENERAL_FL=BUILDING STORY 2_SCHG 2,0.0,0.00,9.30,3.05,5.79,13.11,4.57,1,1,1,0.00,11.58,9.30,16.92,3.05,6.10,3.05,268.96,TARP,TARP,88.25,58.52,52.67,5.85,6,2,0,Yes
 Zone Information, DU_BT=SPACE FUNCTION_ST=DWELLING UNITS GENERAL_FL=BUILDING STORY 2_SCHG 3,0.0,11.58,0.00,3.05,17.37,3.81,4.57,1,1,1,11.58,23.16,0.00,7.62,3.05,6.10,3.05,268.96,TARP,TARP,88.25,35.30,31.77,3.53,6,1,2,Yes
 Zone Information, DU_BT=SPACE FUNCTION_ST=DWELLING UNITS GENERAL_FL=BUILDING STORY 2_SCHG 4,0.0,34.75,9.30,3.05,40.54,13.11,4.57,1,1,1,34.75,46.33,9.30,16.92,3.05,6.10,3.05,268.96,TARP,TARP,88.25,58.52,52.67,5.85,6,2,0,Yes
 Zone Information, DU_BT=SPACE FUNCTION_ST=DWELLING UNITS GENERAL_FL=BUILDING STORY 2_SCHG 5,0.0,11.58,9.30,3.05,17.37,13.11,4.57,1,1,1,11.58,23.16,9.30,16.92,3.05,6.10,3.05,268.96,TARP,TARP,88.25,35.30,31.77,3.53,6,1,0,Yes
 Zone Information, DU_BT=SPACE FUNCTION_ST=DWELLING UNITS GENERAL_FL=BUILDING STORY 2_SCHG 6,0.0,0.00,0.00,3.05,5.79,3.81,4.57,1,1,1,0.00,11.58,0.00,7.62,3.05,6.10,3.05,268.96,TARP,TARP,88.25,58.52,52.67,5.85,6,2,2,Yes
 Zone Information, DU_BT=SPACE FUNCTION_ST=DWELLING UNITS GENERAL_FL=BUILDING STORY 2_SCHG 7,0.0,34.75,0.00,3.05,40.54,3.81,4.57,1,1,1,34.75,46.33,0.00,7.62,3.05,6.10,3.05,268.96,TARP,TARP,88.25,58.52,52.67,5.85,6,2,2,Yes
 Zone Information, DU_BT=SPACE FUNCTION_ST=DWELLING UNITS GENERAL_FL=BUILDING STORY 3_SCHG,0.0,0.00,0.00,6.10,5.79,3.81,7.62,1,1,1,0.00,11.58,0.00,7.62,6.10,9.14,3.05,268.96,TARP,TARP,88.25,58.52,52.67,5.85,6,2,2,Yes
 Zone Information, DU_BT=SPACE FUNCTION_ST=DWELLING UNITS GENERAL_FL=BUILDING STORY 3_SCHG 1,0.0,23.16,0.00,6.10,28.95,3.81,7.62,1,1,1,23.16,34.75,0.00,7.62,6.10,9.14,3.05,268.97,TARP,TARP,88.25,35.30,31.77,3.53,6,1,2,Yes
 Zone Information, DU_BT=SPACE FUNCTION_ST=DWELLING UNITS GENERAL_FL=BUILDING STORY 3_SCHG 2,0.0,11.58,0.00,6.10,17.37,3.81,7.62,1,1,1,11.58,23.16,0.00,7.62,6.10,9.14,3.05,268.96,TARP,TARP,88.25,35.30,31.77,3.53,6,1,2,Yes
 Zone Information, DU_BT=SPACE FUNCTION_ST=DWELLING UNITS GENERAL_FL=BUILDING STORY 3_SCHG 3,0.0,34.75,0.00,6.10,40.54,3.81,7.62,1,1,1,34.75,46.33,0.00,7.62,6.10,9.14,3.05,268.96,TARP,TARP,88.25,58.52,52.67,5.85,6,2,2,Yes
 Zone Information, DU_BT=SPACE FUNCTION_ST=DWELLING UNITS GENERAL_FL=BUILDING STORY 3_SCHG 4,0.0,0.00,9.30,6.10,5.79,13.11,7.62,1,1,1,0.00,11.58,9.30,16.92,6.10,9.14,3.05,268.96,TARP,TARP,88.25,58.52,52.67,5.85,6,2,0,Yes
 Zone Information, DU_BT=SPACE FUNCTION_ST=DWELLING UNITS GENERAL_FL=BUILDING STORY 3_SCHG 5,0.0,34.75,9.30,6.10,40.54,13.11,7.62,1,1,1,34.75,46.33,9.30,16.92,6.10,9.14,3.05,268.96,TARP,TARP,88.25,58.52,52.67,5.85,6,2,0,Yes
 Zone Information, DU_BT=SPACE FUNCTION_ST=DWELLING UNITS GENERAL_FL=BUILDING STORY 3_SCHG 6,0.0,11.58,9.30,6.10,17.37,13.11,7.62,1,1,1,11.58,23.16,9.30,16.92,6.10,9.14,3.05,268.96,TARP,TARP,88.25,35.30,31.77,3.53,6,1,0,Yes
 Zone Information, DU_BT=SPACE FUNCTION_ST=DWELLING UNITS GENERAL_FL=BUILDING STORY 3_SCHG 7,0.0,23.16,9.30,6.10,28.95,13.11,7.62,1,1,1,23.16,34.75,9.30,16.92,6.10,9.14,3.05,268.97,TARP,TARP,88.25,35.30,31.77,3.53,6,1,0,Yes
 Zone Information, DU_BT=SPACE FUNCTION_ST=DWELLING UNITS GENERAL_FL=BUILDING STORY 4_SCHG,0.0,34.75,0.00,9.14,40.54,3.81,10.67,1,1,1,34.75,46.33,0.00,7.62,9.14,12.19,3.05,268.96,TARP,TARP,88.25,58.52,52.67,5.85,6,2,2,Yes
 Zone Information, DU_BT=SPACE FUNCTION_ST=DWELLING UNITS GENERAL_FL=BUILDING STORY 4_SCHG 1,0.0,34.75,9.30,9.14,40.54,13.11,10.67,1,1,1,34.75,46.33,9.30,16.92,9.14,12.19,3.05,268.96,TARP,TARP,88.25,58.52,52.67,5.85,6,2,0,Yes
 Zone Information, DU_BT=SPACE FUNCTION_ST=DWELLING UNITS GENERAL_FL=BUILDING STORY 4_SCHG 2,0.0,0.00,0.00,9.14,5.79,3.81,10.67,1,1,1,0.00,11.58,0.00,7.62,9.14,12.19,3.05,268.96,TARP,TARP,88.25,58.52,52.67,5.85,6,2,2,Yes
 Zone Information, DU_BT=SPACE FUNCTION_ST=DWELLING UNITS GENERAL_FL=BUILDING STORY 4_SCHG 3,0.0,23.16,0.00,9.14,28.95,3.81,10.67,1,1,1,23.16,34.75,0.00,7.62,9.14,12.19,3.05,268.97,TARP,TARP,88.25,35.30,31.77,3.53,6,1,2,Yes
 Zone Information, DU_BT=SPACE FUNCTION_ST=DWELLING UNITS GENERAL_FL=BUILDING STORY 4_SCHG 4,0.0,0.00,9.30,9.14,5.79,13.11,10.67,1,1,1,0.00,11.58,9.30,16.92,9.14,12.19,3.05,268.96,TARP,TARP,88.25,58.52,52.67,5.85,6,2,0,Yes
 Zone Information, DU_BT=SPACE FUNCTION_ST=DWELLING UNITS GENERAL_FL=BUILDING STORY 4_SCHG 5,0.0,11.58,9.30,9.14,17.37,13.11,10.67,1,1,1,11.58,23.16,9.30,16.92,9.14,12.19,3.05,268.96,TARP,TARP,88.25,35.30,31.77,3.53,6,1,0,Yes
 Zone Information, DU_BT=SPACE FUNCTION_ST=DWELLING UNITS GENERAL_FL=BUILDING STORY 4_SCHG 6,0.0,11.58,0.00,9.14,17.37,3.81,10.67,1,1,1,11.58,23.16,0.00,7.62,9.14,12.19,3.05,268.96,TARP,TARP,88.25,35.30,31.77,3.53,6,1,2,Yes
 Zone Information, DU_BT=SPACE FUNCTION_ST=DWELLING UNITS GENERAL_FL=BUILDING STORY 4_SCHG 7,0.0,23.16,9.30,9.14,28.95,13.11,10.67,1,1,1,23.16,34.75,9.30,16.92,9.14,12.19,3.05,268.97,TARP,TARP,88.25,35.30,31.77,3.53,6,1,0,Yes
 Zone Information, DU_BT=SPACE FUNCTION_ST=DWELLING UNITS GENERAL_FL=BUILDING STORY 5_SCHG,0.0,34.75,0.00,12.19,40.54,3.81,13.72,1,1,1,34.75,46.33,0.00,7.62,12.19,15.24,3.05,268.96,TARP,TARP,88.25,58.52,52.67,5.85,6,2,2,Yes
 Zone Information, DU_BT=SPACE FUNCTION_ST=DWELLING UNITS GENERAL_FL=BUILDING STORY 5_SCHG 1,0.0,11.58,9.30,12.19,17.37,13.11,13.72,1,1,1,11.58,23.16,9.30,16.92,12.19,15.24,3.05,268.96,TARP,TARP,88.25,35.30,31.77,3.53,6,1,0,Yes
 Zone Information, DU_BT=SPACE FUNCTION_ST=DWELLING UNITS GENERAL_FL=BUILDING STORY 5_SCHG 2,0.0,34.75,9.30,12.19,40.54,13.11,13.72,1,1,1,34.75,46.33,9.30,16.92,12.19,15.24,3.05,268.96,TARP,TARP,88.25,58.52,52.67,5.85,6,2,0,Yes
 Zone Information, DU_BT=SPACE FUNCTION_ST=DWELLING UNITS GENERAL_FL=BUILDING STORY 5_SCHG 3,0.0,23.16,9.30,12.19,28.95,13.11,13.72,1,1,1,23.16,34.75,9.30,16.92,12.19,15.24,3.05,268.97,TARP,TARP,88.25,35.30,31.77,3.53,6,1,0,Yes
 Zone Information, DU_BT=SPACE FUNCTION_ST=DWELLING UNITS GENERAL_FL=BUILDING STORY 5_SCHG 4,0.0,23.16,0.00,12.19,28.95,3.81,13.72,1,1,1,23.16,34.75,0.00,7.62,12.19,15.24,3.05,268.97,TARP,TARP,88.25,35.30,31.77,3.53,6,1,2,Yes
 Zone Information, DU_BT=SPACE FUNCTION_ST=DWELLING UNITS GENERAL_FL=BUILDING STORY 5_SCHG 5,0.0,11.58,0.00,12.19,17.37,3.81,13.72,1,1,1,11.58,23.16,0.00,7.62,12.19,15.24,3.05,268.96,TARP,TARP,88.25,35.30,31.77,3.53,6,1,2,Yes
 Zone Information, DU_BT=SPACE FUNCTION_ST=DWELLING UNITS GENERAL_FL=BUILDING STORY 5_SCHG 6,0.0,0.00,9.30,12.19,5.79,13.11,13.72,1,1,1,0.00,11.58,9.30,16.92,12.19,15.24,3.05,268.96,TARP,TARP,88.25,58.52,52.67,5.85,6,2,0,Yes
 Zone Information, DU_BT=SPACE FUNCTION_ST=DWELLING UNITS GENERAL_FL=BUILDING STORY 5_SCHG 7,0.0,0.00,0.00,12.19,5.79,3.81,13.72,1,1,1,0.00,11.58,0.00,7.62,12.19,15.24,3.05,268.96,TARP,TARP,88.25,58.52,52.67,5.85,6,2,2,Yes
 Zone Information, DU_BT=SPACE FUNCTION_ST=DWELLING UNITS GENERAL_FL=BUILDING STORY 6_SCHG,0.0,0.00,9.30,15.24,5.79,13.11,16.76,1,1,1,0.00,11.58,9.30,16.92,15.24,18.29,3.05,268.96,TARP,TARP,88.25,58.52,52.67,5.85,6,2,0,Yes
 Zone Information, DU_BT=SPACE FUNCTION_ST=DWELLING UNITS GENERAL_FL=BUILDING STORY 6_SCHG 1,0.0,23.16,9.30,15.24,28.95,13.11,16.76,1,1,1,23.16,34.75,9.30,16.92,15.24,18.29,3.05,268.97,TARP,TARP,88.25,35.30,31.77,3.53,6,1,0,Yes
 Zone Information, DU_BT=SPACE FUNCTION_ST=DWELLING UNITS GENERAL_FL=BUILDING STORY 6_SCHG 2,0.0,34.75,9.30,15.24,40.54,13.11,16.76,1,1,1,34.75,46.33,9.30,16.92,15.24,18.29,3.05,268.96,TARP,TARP,88.25,58.52,52.67,5.85,6,2,0,Yes
 Zone Information, DU_BT=SPACE FUNCTION_ST=DWELLING UNITS GENERAL_FL=BUILDING STORY 6_SCHG 3,0.0,11.58,9.30,15.24,17.37,13.11,16.76,1,1,1,11.58,23.16,9.30,16.92,15.24,18.29,3.05,268.96,TARP,TARP,88.25,35.30,31.77,3.53,6,1,0,Yes
 Zone Information, DU_BT=SPACE FUNCTION_ST=DWELLING UNITS GENERAL_FL=BUILDING STORY 6_SCHG 4,0.0,34.75,0.00,15.24,40.54,3.81,16.76,1,1,1,34.75,46.33,0.00,7.62,15.24,18.29,3.05,268.96,TARP,TARP,88.25,58.52,52.67,5.85,6,2,2,Yes
 Zone Information, DU_BT=SPACE FUNCTION_ST=DWELLING UNITS GENERAL_FL=BUILDING STORY 6_SCHG 5,0.0,0.00,0.00,15.24,5.79,3.81,16.76,1,1,1,0.00,11.58,0.00,7.62,15.24,18.29,3.05,268.96,TARP,TARP,88.25,58.52,52.67,5.85,6,2,2,Yes
 Zone Information, DU_BT=SPACE FUNCTION_ST=DWELLING UNITS GENERAL_FL=BUILDING STORY 6_SCHG 6,0.0,11.58,0.00,15.24,17.37,3.81,16.76,1,1,1,11.58,23.16,0.00,7.62,15.24,18.29,3.05,268.96,TARP,TARP,88.25,35.30,31.77,3.53,6,1,2,Yes
 Zone Information, DU_BT=SPACE FUNCTION_ST=DWELLING UNITS GENERAL_FL=BUILDING STORY 6_SCHG 7,0.0,23.16,0.00,15.24,28.95,3.81,16.76,1,1,1,23.16,34.75,0.00,7.62,15.24,18.29,3.05,268.97,TARP,TARP,88.25,35.30,31.77,3.53,6,1,2,Yes
 Zone Information, DU_BT=SPACE FUNCTION_ST=DWELLING UNITS GENERAL_FL=BUILDING STORY 7_SCHG,0.0,23.16,9.30,18.29,28.95,13.11,19.81,1,1,1,23.16,34.75,9.30,16.92,18.29,21.33,3.05,268.97,TARP,TARP,88.25,35.30,31.77,3.53,6,1,0,Yes
 Zone Information, DU_BT=SPACE FUNCTION_ST=DWELLING UNITS GENERAL_FL=BUILDING STORY 7_SCHG 1,0.0,0.00,9.30,18.29,5.79,13.11,19.81,1,1,1,0.00,11.58,9.30,16.92,18.29,21.33,3.05,268.96,TARP,TARP,88.25,58.52,52.67,5.85,6,2,0,Yes
 Zone Information, DU_BT=SPACE FUNCTION_ST=DWELLING UNITS GENERAL_FL=BUILDING STORY 7_SCHG 2,0.0,11.58,0.00,18.29,17.37,3.81,19.81,1,1,1,11.58,23.16,0.00,7.62,18.29,21.33,3.05,268.96,TARP,TARP,88.25,35.30,31.77,3.53,6,1,2,Yes
 Zone Information, DU_BT=SPACE FUNCTION_ST=DWELLING UNITS GENERAL_FL=BUILDING STORY 7_SCHG 3,0.0,34.75,9.30,18.29,40.54,13.11,19.81,1,1,1,34.75,46.33,9.30,16.92,18.29,21.33,3.05,268.96,TARP,TARP,88.25,58.52,52.67,5.85,6,2,0,Yes
 Zone Information, DU_BT=SPACE FUNCTION_ST=DWELLING UNITS GENERAL_FL=BUILDING STORY 7_SCHG 4,0.0,0.00,0.00,18.29,5.79,3.81,19.81,1,1,1,0.00,11.58,0.00,7.62,18.29,21.33,3.05,268.96,TARP,TARP,88.25,58.52,52.67,5.85,6,2,2,Yes
 Zone Information, DU_BT=SPACE FUNCTION_ST=DWELLING UNITS GENERAL_FL=BUILDING STORY 7_SCHG 5,0.0,34.75,0.00,18.29,40.54,3.81,19.81,1,1,1,34.75,46.33,0.00,7.62,18.29,21.33,3.05,268.96,TARP,TARP,88.25,58.52,52.67,5.85,6,2,2,Yes
 Zone Information, DU_BT=SPACE FUNCTION_ST=DWELLING UNITS GENERAL_FL=BUILDING STORY 7_SCHG 6,0.0,11.58,9.30,18.29,17.37,13.11,19.81,1,1,1,11.58,23.16,9.30,16.92,18.29,21.33,3.05,268.96,TARP,TARP,88.25,35.30,31.77,3.53,6,1,0,Yes
 Zone Information, DU_BT=SPACE FUNCTION_ST=DWELLING UNITS GENERAL_FL=BUILDING STORY 7_SCHG 7,0.0,23.16,0.00,18.29,28.95,3.81,19.81,1,1,1,23.16,34.75,0.00,7.62,18.29,21.33,3.05,268.97,TARP,TARP,88.25,35.30,31.77,3.53,6,1,2,Yes
 Zone Information, DU_BT=SPACE FUNCTION_ST=DWELLING UNITS GENERAL_FL=BUILDING STORY 8_SCHG,0.0,23.16,0.00,21.33,28.95,3.81,22.86,1,1,1,23.16,34.75,0.00,7.62,21.33,24.38,3.05,268.97,TARP,TARP,88.25,35.30,31.77,3.53,6,1,2,Yes
 Zone Information, DU_BT=SPACE FUNCTION_ST=DWELLING UNITS GENERAL_FL=BUILDING STORY 8_SCHG 1,0.0,0.00,9.30,21.33,5.79,13.11,22.86,1,1,1,0.00,11.58,9.30,16.92,21.33,24.38,3.05,268.96,TARP,TARP,88.25,58.52,52.67,5.85,6,2,0,Yes
 Zone Information, DU_BT=SPACE FUNCTION_ST=DWELLING UNITS GENERAL_FL=BUILDING STORY 8_SCHG 2,0.0,11.58,0.00,21.33,17.37,3.81,22.86,1,1,1,11.58,23.16,0.00,7.62,21.33,24.38,3.05,268.96,TARP,TARP,88.25,35.30,31.77,3.53,6,1,2,Yes
 Zone Information, DU_BT=SPACE FUNCTION_ST=DWELLING UNITS GENERAL_FL=BUILDING STORY 8_SCHG 3,0.0,11.58,9.30,21.33,17.37,13.11,22.86,1,1,1,11.58,23.16,9.30,16.92,21.33,24.38,3.05,268.96,TARP,TARP,88.25,35.30,31.77,3.53,6,1,0,Yes
 Zone Information, DU_BT=SPACE FUNCTION_ST=DWELLING UNITS GENERAL_FL=BUILDING STORY 8_SCHG 4,0.0,34.75,9.30,21.33,40.54,13.11,22.86,1,1,1,34.75,46.33,9.30,16.92,21.33,24.38,3.05,268.96,TARP,TARP,88.25,58.52,52.67,5.85,6,2,0,Yes
 Zone Information, DU_BT=SPACE FUNCTION_ST=DWELLING UNITS GENERAL_FL=BUILDING STORY 8_SCHG 5,0.0,34.75,0.00,21.33,40.54,3.81,22.86,1,1,1,34.75,46.33,0.00,7.62,21.33,24.38,3.05,268.96,TARP,TARP,88.25,58.52,52.67,5.85,6,2,2,Yes
 Zone Information, DU_BT=SPACE FUNCTION_ST=DWELLING UNITS GENERAL_FL=BUILDING STORY 8_SCHG 6,0.0,0.00,0.00,21.33,5.79,3.81,22.86,1,1,1,0.00,11.58,0.00,7.62,21.33,24.38,3.05,268.96,TARP,TARP,88.25,58.52,52.67,5.85,6,2,2,Yes
 Zone Information, DU_BT=SPACE FUNCTION_ST=DWELLING UNITS GENERAL_FL=BUILDING STORY 8_SCHG 7,0.0,23.16,9.30,21.33,28.95,13.11,22.86,1,1,1,23.16,34.75,9.30,16.92,21.33,24.38,3.05,268.97,TARP,TARP,88.25,35.30,31.77,3.53,6,1,0,Yes
 Zone Information, DU_BT=SPACE FUNCTION_ST=DWELLING UNITS GENERAL_FL=BUILDING STORY 9_SCHG,0.0,23.16,9.30,24.38,28.95,13.11,25.91,1,1,1,23.16,34.75,9.30,16.92,24.38,27.43,3.05,268.97,TARP,TARP,88.25,35.30,31.77,3.53,6,1,0,Yes
 Zone Information, DU_BT=SPACE FUNCTION_ST=DWELLING UNITS GENERAL_FL=BUILDING STORY 9_SCHG 1,0.0,34.75,9.30,24.38,40.54,13.11,25.91,1,1,1,34.75,46.33,9.30,16.92,24.38,27.43,3.05,268.96,TARP,TARP,88.25,58.52,52.67,5.85,6,2,0,Yes
 Zone Information, DU_BT=SPACE FUNCTION_ST=DWELLING UNITS GENERAL_FL=BUILDING STORY 9_SCHG 2,0.0,23.16,0.00,24.38,28.95,3.81,25.91,1,1,1,23.16,34.75,0.00,7.62,24.38,27.43,3.05,268.97,TARP,TARP,88.25,35.30,31.77,3.53,6,1,2,Yes
 Zone Information, DU_BT=SPACE FUNCTION_ST=DWELLING UNITS GENERAL_FL=BUILDING STORY 9_SCHG 3,0.0,0.00,0.00,24.38,5.79,3.81,25.91,1,1,1,0.00,11.58,0.00,7.62,24.38,27.43,3.05,268.96,TARP,TARP,88.25,58.52,52.67,5.85,6,2,2,Yes
 Zone Information, DU_BT=SPACE FUNCTION_ST=DWELLING UNITS GENERAL_FL=BUILDING STORY 9_SCHG 4,0.0,0.00,9.30,24.38,5.79,13.11,25.91,1,1,1,0.00,11.58,9.30,16.92,24.38,27.43,3.05,268.96,TARP,TARP,88.25,58.52,52.67,5.85,6,2,0,Yes
 Zone Information, DU_BT=SPACE FUNCTION_ST=DWELLING UNITS GENERAL_FL=BUILDING STORY 9_SCHG 5,0.0,11.58,0.00,24.38,17.37,3.81,25.91,1,1,1,11.58,23.16,0.00,7.62,24.38,27.43,3.05,268.96,TARP,TARP,88.25,35.30,31.77,3.53,6,1,2,Yes
 Zone Information, DU_BT=SPACE FUNCTION_ST=DWELLING UNITS GENERAL_FL=BUILDING STORY 9_SCHG 6,0.0,11.58,9.30,24.38,17.37,13.11,25.91,1,1,1,11.58,23.16,9.30,16.92,24.38,27.43,3.05,268.96,TARP,TARP,88.25,35.30,31.77,3.53,6,1,0,Yes
 Zone Information, DU_BT=SPACE FUNCTION_ST=DWELLING UNITS GENERAL_FL=BUILDING STORY 9_SCHG 7,0.0,34.75,0.00,24.38,40.54,3.81,25.91,1,1,1,34.75,46.33,0.00,7.62,24.38,27.43,3.05,268.96,TARP,TARP,88.25,58.52,52.67,5.85,6,2,2,Yes
 Zone Information, WILD_ST=CORRIDOR/TRANSITION AREA OTHER-SCH-G_FL=BUILDING STORY 10_SCH=G,0.0,0.00,7.62,27.43,23.16,8.46,28.95,1,1,1,0.00,46.33,7.62,9.30,27.43,30.48,3.05,236.69,TARP,TARP,77.66,10.22,9.20,1.02,12,2,0,Yes
 Zone Information, WILD_ST=CORRIDOR/TRANSITION AREA OTHER-SCH-G_FL=BUILDING STORY 1_SCH=G,0.0,0.00,7.62,0.00,23.16,8.46,1.52,1,1,1,0.00,46.33,7.62,9.30,0.00,3.05,3.05,236.69,TARP,TARP,77.66,10.22,9.20,1.02,12,2,0,Yes
 Zone Information, WILD_ST=CORRIDOR/TRANSITION AREA OTHER-SCH-G_FL=BUILDING STORY 2_SCH=G,0.0,0.00,7.62,3.05,23.16,8.46,4.57,1,1,1,0.00,46.33,7.62,9.30,3.05,6.10,3.05,236.69,TARP,TARP,77.66,10.22,9.20,1.02,12,2,0,Yes
 Zone Information, WILD_ST=CORRIDOR/TRANSITION AREA OTHER-SCH-G_FL=BUILDING STORY 3_SCH=G,0.0,0.00,7.62,6.10,23.16,8.46,7.62,1,1,1,0.00,46.33,7.62,9.30,6.10,9.14,3.05,236.69,TARP,TARP,77.66,10.22,9.20,1.02,12,2,0,Yes
 Zone Information, WILD_ST=CORRIDOR/TRANSITION AREA OTHER-SCH-G_FL=BUILDING STORY 4_SCH=G,0.0,0.00,7.62,9.14,23.16,8.46,10.67,1,1,1,0.00,46.33,7.62,9.30,9.14,12.19,3.05,236.69,TARP,TARP,77.66,10.22,9.20,1.02,12,2,0,Yes
 Zone Information, WILD_ST=CORRIDOR/TRANSITION AREA OTHER-SCH-G_FL=BUILDING STORY 5_SCH=G,0.0,0.00,7.62,12.19,23.16,8.46,13.72,1,1,1,0.00,46.33,7.62,9.30,12.19,15.24,3.05,236.69,TARP,TARP,77.66,10.22,9.20,1.02,12,2,0,Yes
 Zone Information, WILD_ST=CORRIDOR/TRANSITION AREA OTHER-SCH-G_FL=BUILDING STORY 6_SCH=G,0.0,0.00,7.62,15.24,23.16,8.46,16.76,1,1,1,0.00,46.33,7.62,9.30,15.24,18.29,3.05,236.69,TARP,TARP,77.66,10.22,9.20,1.02,12,2,0,Yes
 Zone Information, WILD_ST=CORRIDOR/TRANSITION AREA OTHER-SCH-G_FL=BUILDING STORY 7_SCH=G,0.0,0.00,7.62,18.29,23.16,8.46,19.81,1,1,1,0.00,46.33,7.62,9.30,18.29,21.33,3.05,236.69,TARP,TARP,77.66,10.22,9.20,1.02,12,2,0,Yes
 Zone Information, WILD_ST=CORRIDOR/TRANSITION AREA OTHER-SCH-G_FL=BUILDING STORY 8_SCH=G,0.0,0.00,7.62,21.33,23.16,8.46,22.86,1,1,1,0.00,46.33,7.62,9.30,21.33,24.38,3.05,236.69,TARP,TARP,77.66,10.22,9.20,1.02,12,2,0,Yes
 Zone Information, WILD_ST=CORRIDOR/TRANSITION AREA OTHER-SCH-G_FL=BUILDING STORY 9_SCH=G,0.0,0.00,7.62,24.38,23.16,8.46,25.91,1,1,1,0.00,46.33,7.62,9.30,24.38,27.43,3.05,236.69,TARP,TARP,77.66,10.22,9.20,1.02,12,2,0,Yes
! <Zone Internal Gains Nominal>,Zone Name, Floor Area {m2},# Occupants,Area per Occupant {m2/person},Occupant per Area {person/m2},Interior Lighting {W/m2},Electric Load {W/m2},Gas Load {W/m2},Other Load {W/m2},Hot Water Eq {W/m2},Steam Equipment {W/m2},Sum Loads per Area {W/m2},Outdoor Controlled Baseboard Heat
 Zone Internal Gains Nominal, ALL_ST=OFFICE ENCLOSED <= 25 M2_FL=BUILDING STORY 1_SCH=A,88.25,4.4,19.993,5.002E-002,4.800,5.252,0.000,0.000,0.000,0.000,10.052,No
 Zone Internal Gains Nominal, DU_BT=SPACE FUNCTION_ST=DWELLING UNITS GENERAL_FL=BUILDING STORY 10_SCHG,88.25,3.5,24.991,4.001E-002,3.000,3.501,0.000,0.000,0.000,0.000,6.501,No
 Zone Internal Gains Nominal, DU_BT=SPACE FUNCTION_ST=DWELLING UNITS GENERAL_FL=BUILDING STORY 10_SCHG 1,88.25,3.5,24.991,4.001E-002,3.000,3.501,0.000,0.000,0.000,0.000,6.501,No
 Zone Internal Gains Nominal, DU_BT=SPACE FUNCTION_ST=DWELLING UNITS GENERAL_FL=BUILDING STORY 10_SCHG 2,88.25,3.5,24.991,4.001E-002,3.000,3.501,0.000,0.000,0.000,0.000,6.501,No
 Zone Internal Gains Nominal, DU_BT=SPACE FUNCTION_ST=DWELLING UNITS GENERAL_FL=BUILDING STORY 10_SCHG 3,88.25,3.5,24.991,4.001E-002,3.000,3.501,0.000,0.000,0.000,0.000,6.501,No
 Zone Internal Gains Nominal, DU_BT=SPACE FUNCTION_ST=DWELLING UNITS GENERAL_FL=BUILDING STORY 10_SCHG 4,88.25,3.5,24.991,4.001E-002,3.000,3.501,0.000,0.000,0.000,0.000,6.501,No
 Zone Internal Gains Nominal, DU_BT=SPACE FUNCTION_ST=DWELLING UNITS GENERAL_FL=BUILDING STORY 10_SCHG 5,88.25,3.5,24.991,4.001E-002,3.000,3.501,0.000,0.000,0.000,0.000,6.501,No
 Zone Internal Gains Nominal, DU_BT=SPACE FUNCTION_ST=DWELLING UNITS GENERAL_FL=BUILDING STORY 10_SCHG 6,88.25,3.5,24.991,4.001E-002,3.000,3.501,0.000,0.000,0.000,0.000,6.501,No
 Zone Internal Gains Nominal, DU_BT=SPACE FUNCTION_ST=DWELLING UNITS GENERAL_FL=BUILDING STORY 10_SCHG 7,88.25,3.5,24.991,4.001E-002,3.000,3.501,0.000,0.000,0.000,0.000,6.501,No
 Zone Internal Gains Nominal, DU_BT=SPACE FUNCTION_ST=DWELLING UNITS GENERAL_FL=BUILDING STORY 1_SCHG,88.25,3.5,24.991,4.001E-002,3.000,3.501,0.000,0.000,0.000,0.000,6.501,No
 Zone Internal Gains Nominal, DU_BT=SPACE FUNCTION_ST=DWELLING UNITS GENERAL_FL=BUILDING STORY 1_SCHG 1,88.25,3.5,24.991,4.001E-002,3.000,3.501,0.000,0.000,0.000,0.000,6.501,No
 Zone Internal Gains Nominal, DU_BT=SPACE FUNCTION_ST=DWELLING UNITS GENERAL_FL=BUILDING STORY 1_SCHG 2,88.25,3.5,24.991,4.001E-002,3.000,3.501,0.000,0.000,0.000,0.000,6.501,No
 Zone Internal Gains Nominal, DU_BT=SPACE FUNCTION_ST=DWELLING UNITS GENERAL_FL=BUILDING STORY 1_SCHG 3,88.25,3.5,24.991,4.001E-002,3.000,3.501,0.000,0.000,0.000,0.000,6.501,No
 Zone Internal Gains Nominal, DU_BT=SPACE FUNCTION_ST=DWELLING UNITS GENERAL_FL=BUILDING STORY 1_SCHG 4,88.25,3.5,24.991,4.001E-002,3.000,3.501,0.000,0.000,0.000,0.000,6.501,No
 Zone Internal Gains Nominal, DU_BT=SPACE FUNCTION_ST=DWELLING UNITS GENERAL_FL=BUILDING STORY 1_SCHG 5,88.25,3.5,24.991,4.001E-002,3.000,3.501,0.000,0.000,0.000,0.000,6.501,No
 Zone Internal Gains Nominal, DU_BT=SPACE FUNCTION_ST=DWELLING UNITS GENERAL_FL=BUILDING STORY 1_SCHG 6,88.25,3.5,24.991,4.001E-002,3.000,3.501,0.000,0.000,0.000,0.000,6.501,No
 Zone Internal Gains Nominal, DU_BT=SPACE FUNCTION_ST=DWELLING UNITS GENERAL_FL=BUILDING STORY 2_SCHG,88.25,3.5,24.991,4.001E-002,3.000,3.501,0.000,0.000,0.000,0.000,6.501,No
 Zone Internal Gains Nominal, DU_BT=SPACE FUNCTION_ST=DWELLING UNITS GENERAL_FL=BUILDING STORY 2_SCHG 1,88.25,3.5,24.991,4.001E-002,3.000,3.501,0.000,0.000,0.000,0.000,6.501,No
 Zone Internal Gains Nominal, DU_BT=SPACE FUNCTION_ST=DWELLING UNITS GENERAL_FL=BUILDING STORY 2_SCHG 2,88.25,3.5,24.991,4.001E-002,3.000,3.501,0.000,0.000,0.000,0.000,6.501,No
 Zone Internal Gains Nominal, DU_BT=SPACE FUNCTION_ST=DWELLING UNITS GENERAL_FL=BUILDING STORY 2_SCHG 3,88.25,3.5,24.991,4.001E-002,3.000,3.501,0.000,0.000,0.000,0.000,6.501,No
 Zone Internal Gains Nominal, DU_BT=SPACE FUNCTION_ST=DWELLING UNITS GENERAL_FL=BUILDING STORY 2_SCHG 4,88.25,3.5,24.991,4.001E-002,3.000,3.501,0.000,0.000,0.000,0.000,6.501,No
 Zone Internal Gains Nominal, DU_BT=SPACE FUNCTION_ST=DWELLING UNITS GENERAL_FL=BUILDING STORY 2_SCHG 5,88.25,3.5,24.991,4.001E-002,3.000,3.501,0.000,0.000,0.000,0.000,6.501,No
 Zone Internal Gains Nominal, DU_BT=SPACE FUNCTION_ST=DWELLING UNITS GENERAL_FL=BUILDING STORY 2_SCHG 6,88.25,3.5,24.991,4.001E-002,3.000,3.501,0.000,0.000,0.000,0.000,6.501,No
 Zone Internal Gains Nominal, DU_BT=SPACE FUNCTION_ST=DWELLING UNITS GENERAL_FL=BUILDING STORY 2_SCHG 7,88.25,3.5,24.991,4.001E-002,3.000,3.501,0.000,0.000,0.000,0.000,6.501,No
 Zone Internal Gains Nominal, DU_BT=SPACE FUNCTION_ST=DWELLING UNITS GENERAL_FL=BUILDING STORY 3_SCHG,88.25,3.5,24.991,4.001E-002,3.000,3.501,0.000,0.000,0.000,0.000,6.501,No
 Zone Internal Gains Nominal, DU_BT=SPACE FUNCTION_ST=DWELLING UNITS GENERAL_FL=BUILDING STORY 3_SCHG 1,88.25,3.5,24.991,4.001E-002,3.000,3.501,0.000,0.000,0.000,0.000,6.501,No
 Zone Internal Gains Nominal, DU_BT=SPACE FUNCTION_ST=DWELLING UNITS GENERAL_FL=BUILDING STORY 3_SCHG 2,88.25,3.5,24.991,4.001E-002,3.000,3.501,0.000,0.000,0.000,0.000,6.501,No
 Zone Internal Gains Nominal, DU_BT=SPACE FUNCTION_ST=DWELLING UNITS GENERAL_FL=BUILDING STORY 3_SCHG 3,88.25,3.5,24.991,4.001E-002,3.000,3.501,0.000,0.000,0.000,0.000,6.501,No
 Zone Internal Gains Nominal, DU_BT=SPACE FUNCTION_ST=DWELLING UNITS GENERAL_FL=BUILDING STORY 3_SCHG 4,88.25,3.5,24.991,4.001E-002,3.000,3.501,0.000,0.000,0.000,0.000,6.501,No
 Zone Internal Gains Nominal, DU_BT=SPACE FUNCTION_ST=DWELLING UNITS GENERAL_FL=BUILDING STORY 3_SCHG 5,88.25,3.5,24.991,4.001E-002,3.000,3.501,0.000,0.000,0.000,0.000,6.501,No
 Zone Internal Gains Nominal, DU_BT=SPACE FUNCTION_ST=DWELLING UNITS GENERAL_FL=BUILDING STORY 3_SCHG 6,88.25,3.5,24.991,4.001E-002,3.000,3.501,0.000,0.000,0.000,0.000,6.501,No
 Zone Internal Gains Nominal, DU_BT=SPACE FUNCTION_ST=DWELLING UNITS GENERAL_FL=BUILDING STORY 3_SCHG 7,88.25,3.5,24.991,4.001E-002,3.000,3.501,0.000,0.000,0.000,0.000,6.501,No
 Zone Internal Gains Nominal, DU_BT=SPACE FUNCTION_ST=DWELLING UNITS GENERAL_FL=BUILDING STORY 4_SCHG,88.25,3.5,24.991,4.001E-002,3.000,3.501,0.000,0.000,0.000,0.000,6.501,No
 Zone Internal Gains Nominal, DU_BT=SPACE FUNCTION_ST=DWELLING UNITS GENERAL_FL=BUILDING STORY 4_SCHG 1,88.25,3.5,24.991,4.001E-002,3.000,3.501,0.000,0.000,0.000,0.000,6.501,No
 Zone Internal Gains Nominal, DU_BT=SPACE FUNCTION_ST=DWELLING UNITS GENERAL_FL=BUILDING STORY 4_SCHG 2,88.25,3.5,24.991,4.001E-002,3.000,3.501,0.000,0.000,0.000,0.000,6.501,No
 Zone Internal Gains Nominal, DU_BT=SPACE FUNCTION_ST=DWELLING UNITS GENERAL_FL=BUILDING STORY 4_SCHG 3,88.25,3.5,24.991,4.001E-002,3.000,3.501,0.000,0.000,0.000,0.000,6.501,No
 Zone Internal Gains Nominal, DU_BT=SPACE FUNCTION_ST=DWELLING UNITS GENERAL_FL=BUILDING STORY 4_SCHG 4,88.25,3.5,24.991,4.001E-002,3.000,3.501,0.000,0.000,0.000,0.000,6.501,No
 Zone Internal Gains Nominal, DU_BT=SPACE FUNCTION_ST=DWELLING UNITS GENERAL_FL=BUILDING STORY 4_SCHG 5,88.25,3.5,24.991,4.001E-002,3.000,3.501,0.000,0.000,0.000,0.000,6.501,No
 Zone Internal Gains Nominal, DU_BT=SPACE FUNCTION_ST=DWELLING UNITS GENERAL_FL=BUILDING STORY 4_SCHG 6,88.25,3.5,24.991,4.001E-002,3.000,3.501,0.000,0.000,0.000,0.000,6.501,No
 Zone Internal Gains Nominal, DU_BT=SPACE FUNCTION_ST=DWELLING UNITS GENERAL_FL=BUILDING STORY 4_SCHG 7,88.25,3.5,24.991,4.001E-002,3.000,3.501,0.000,0.000,0.000,0.000,6.501,No
 Zone Internal Gains Nominal, DU_BT=SPACE FUNCTION_ST=DWELLING UNITS GENERAL_FL=BUILDING STORY 5_SCHG,88.25,3.5,24.991,4.001E-002,3.000,3.501,0.000,0.000,0.000,0.000,6.501,No
 Zone Internal Gains Nominal, DU_BT=SPACE FUNCTION_ST=DWELLING UNITS GENERAL_FL=BUILDING STORY 5_SCHG 1,88.25,3.5,24.991,4.001E-002,3.000,3.501,0.000,0.000,0.000,0.000,6.501,No
 Zone Internal Gains Nominal, DU_BT=SPACE FUNCTION_ST=DWELLING UNITS GENERAL_FL=BUILDING STORY 5_SCHG 2,88.25,3.5,24.991,4.001E-002,3.000,3.501,0.000,0.000,0.000,0.000,6.501,No
 Zone Internal Gains Nominal, DU_BT=SPACE FUNCTION_ST=DWELLING UNITS GENERAL_FL=BUILDING STORY 5_SCHG 3,88.25,3.5,24.991,4.001E-002,3.000,3.501,0.000,0.000,0.000,0.000,6.501,No
 Zone Internal Gains Nominal, DU_BT=SPACE FUNCTION_ST=DWELLING UNITS GENERAL_FL=BUILDING STORY 5_SCHG 4,88.25,3.5,24.991,4.001E-002,3.000,3.501,0.000,0.000,0.000,0.000,6.501,No
 Zone Internal Gains Nominal, DU_BT=SPACE FUNCTION_ST=DWELLING UNITS GENERAL_FL=BUILDING STORY 5_SCHG 5,88.25,3.5,24.991,4.001E-002,3.000,3.501,0.000,0.000,0.000,0.000,6.501,No
 Zone Internal Gains Nominal, DU_BT=SPACE FUNCTION_ST=DWELLING UNITS GENERAL_FL=BUILDING STORY 5_SCHG 6,88.25,3.5,24.991,4.001E-002,3.000,3.501,0.000,0.000,0.000,0.000,6.501,No
 Zone Internal Gains Nominal, DU_BT=SPACE FUNCTION_ST=DWELLING UNITS GENERAL_FL=BUILDING STORY 5_SCHG 7,88.25,3.5,24.991,4.001E-002,3.000,3.501,0.000,0.000,0.000,0.000,6.501,No
 Zone Internal Gains Nominal, DU_BT=SPACE FUNCTION_ST=DWELLING UNITS GENERAL_FL=BUILDING STORY 6_SCHG,88.25,3.5,24.991,4.001E-002,3.000,3.501,0.000,0.000,0.000,0.000,6.501,No
 Zone Internal Gains Nominal, DU_BT=SPACE FUNCTION_ST=DWELLING UNITS GENERAL_FL=BUILDING STORY 6_SCHG 1,88.25,3.5,24.991,4.001E-002,3.000,3.501,0.000,0.000,0.000,0.000,6.501,No
 Zone Internal Gains Nominal, DU_BT=SPACE FUNCTION_ST=DWELLING UNITS GENERAL_FL=BUILDING STORY 6_SCHG 2,88.25,3.5,24.991,4.001E-002,3.000,3.501,0.000,0.000,0.000,0.000,6.501,No
 Zone Internal Gains Nominal, DU_BT=SPACE FUNCTION_ST=DWELLING UNITS GENERAL_FL=BUILDING STORY 6_SCHG 3,88.25,3.5,24.991,4.001E-002,3.000,3.501,0.000,0.000,0.000,0.000,6.501,No
 Zone Internal Gains Nominal, DU_BT=SPACE FUNCTION_ST=DWELLING UNITS GENERAL_FL=BUILDING STORY 6_SCHG 4,88.25,3.5,24.991,4.001E-002,3.000,3.501,0.000,0.000,0.000,0.000,6.501,No
 Zone Internal Gains Nominal, DU_BT=SPACE FUNCTION_ST=DWELLING UNITS GENERAL_FL=BUILDING STORY 6_SCHG 5,88.25,3.5,24.991,4.001E-002,3.000,3.501,0.000,0.000,0.000,0.000,6.501,No
 Zone Internal Gains Nominal, DU_BT=SPACE FUNCTION_ST=DWELLING UNITS GENERAL_FL=BUILDING STORY 6_SCHG 6,88.25,3.5,24.991,4.001E-002,3.000,3.501,0.000,0.000,0.000,0.000,6.501,No
 Zone Internal Gains Nominal, DU_BT=SPACE FUNCTION_ST=DWELLING UNITS GENERAL_FL=BUILDING STORY 6_SCHG 7,88.25,3.5,24.991,4.001E-002,3.000,3.501,0.000,0.000,0.000,0.000,6.501,No
 Zone Internal Gains Nominal, DU_BT=SPACE FUNCTION_ST=DWELLING UNITS GENERAL_FL=BUILDING STORY 7_SCHG,88.25,3.5,24.991,4.001E-002,3.000,3.501,0.000,0.000,0.000,0.000,6.501,No
 Zone Internal Gains Nominal, DU_BT=SPACE FUNCTION_ST=DWELLING UNITS GENERAL_FL=BUILDING STORY 7_SCHG 1,88.25,3.5,24.991,4.001E-002,3.000,3.501,0.000,0.000,0.000,0.000,6.501,No
 Zone Internal Gains Nominal, DU_BT=SPACE FUNCTION_ST=DWELLING UNITS GENERAL_FL=BUILDING STORY 7_SCHG 2,88.25,3.5,24.991,4.001E-002,3.000,3.501,0.000,0.000,0.000,0.000,6.501,No
 Zone Internal Gains Nominal, DU_BT=SPACE FUNCTION_ST=DWELLING UNITS GENERAL_FL=BUILDING STORY 7_SCHG 3,88.25,3.5,24.991,4.001E-002,3.000,3.501,0.000,0.000,0.000,0.000,6.501,No
 Zone Internal Gains Nominal, DU_BT=SPACE FUNCTION_ST=DWELLING UNITS GENERAL_FL=BUILDING STORY 7_SCHG 4,88.25,3.5,24.991,4.001E-002,3.000,3.501,0.000,0.000,0.000,0.000,6.501,No
 Zone Internal Gains Nominal, DU_BT=SPACE FUNCTION_ST=DWELLING UNITS GENERAL_FL=BUILDING STORY 7_SCHG 5,88.25,3.5,24.991,4.001E-002,3.000,3.501,0.000,0.000,0.000,0.000,6.501,No
 Zone Internal Gains Nominal, DU_BT=SPACE FUNCTION_ST=DWELLING UNITS GENERAL_FL=BUILDING STORY 7_SCHG 6,88.25,3.5,24.991,4.001E-002,3.000,3.501,0.000,0.000,0.000,0.000,6.501,No
 Zone Internal Gains Nominal, DU_BT=SPACE FUNCTION_ST=DWELLING UNITS GENERAL_FL=BUILDING STORY 7_SCHG 7,88.25,3.5,24.991,4.001E-002,3.000,3.501,0.000,0.000,0.000,0.000,6.501,No
 Zone Internal Gains Nominal, DU_BT=SPACE FUNCTION_ST=DWELLING UNITS GENERAL_FL=BUILDING STORY 8_SCHG,88.25,3.5,24.991,4.001E-002,3.000,3.501,0.000,0.000,0.000,0.000,6.501,No
 Zone Internal Gains Nominal, DU_BT=SPACE FUNCTION_ST=DWELLING UNITS GENERAL_FL=BUILDING STORY 8_SCHG 1,88.25,3.5,24.991,4.001E-002,3.000,3.501,0.000,0.000,0.000,0.000,6.501,No
 Zone Internal Gains Nominal, DU_BT=SPACE FUNCTION_ST=DWELLING UNITS GENERAL_FL=BUILDING STORY 8_SCHG 2,88.25,3.5,24.991,4.001E-002,3.000,3.501,0.000,0.000,0.000,0.000,6.501,No
 Zone Internal Gains Nominal, DU_BT=SPACE FUNCTION_ST=DWELLING UNITS GENERAL_FL=BUILDING STORY 8_SCHG 3,88.25,3.5,24.991,4.001E-002,3.000,3.501,0.000,0.000,0.000,0.000,6.501,No
 Zone Internal Gains Nominal, DU_BT=SPACE FUNCTION_ST=DWELLING UNITS GENERAL_FL=BUILDING STORY 8_SCHG 4,88.25,3.5,24.991,4.001E-002,3.000,3.501,0.000,0.000,0.000,0.000,6.501,No
 Zone Internal Gains Nominal, DU_BT=SPACE FUNCTION_ST=DWELLING UNITS GENERAL_FL=BUILDING STORY 8_SCHG 5,88.25,3.5,24.991,4.001E-002,3.000,3.501,0.000,0.000,0.000,0.000,6.501,No
 Zone Internal Gains Nominal, DU_BT=SPACE FUNCTION_ST=DWELLING UNITS GENERAL_FL=BUILDING STORY 8_SCHG 6,88.25,3.5,24.991,4.001E-002,3.000,3.501,0.000,0.000,0.000,0.000,6.501,No
 Zone Internal Gains Nominal, DU_BT=SPACE FUNCTION_ST=DWELLING UNITS GENERAL_FL=BUILDING STORY 8_SCHG 7,88.25,3.5,24.991,4.001E-002,3.000,3.501,0.000,0.000,0.000,0.000,6.501,No
 Zone Internal Gains Nominal, DU_BT=SPACE FUNCTION_ST=DWELLING UNITS GENERAL_FL=BUILDING STORY 9_SCHG,88.25,3.5,24.991,4.001E-002,3.000,3.501,0.000,0.000,0.000,0.000,6.501,No
 Zone Internal Gains Nominal, DU_BT=SPACE FUNCTION_ST=DWELLING UNITS GENERAL_FL=BUILDING STORY 9_SCHG 1,88.25,3.5,24.991,4.001E-002,3.000,3.501,0.000,0.000,0.000,0.000,6.501,No
 Zone Internal Gains Nominal, DU_BT=SPACE FUNCTION_ST=DWELLING UNITS GENERAL_FL=BUILDING STORY 9_SCHG 2,88.25,3.5,24.991,4.001E-002,3.000,3.501,0.000,0.000,0.000,0.000,6.501,No
 Zone Internal Gains Nominal, DU_BT=SPACE FUNCTION_ST=DWELLING UNITS GENERAL_FL=BUILDING STORY 9_SCHG 3,88.25,3.5,24.991,4.001E-002,3.000,3.501,0.000,0.000,0.000,0.000,6.501,No
 Zone Internal Gains Nominal, DU_BT=SPACE FUNCTION_ST=DWELLING UNITS GENERAL_FL=BUILDING STORY 9_SCHG 4,88.25,3.5,24.991,4.001E-002,3.000,3.501,0.000,0.000,0.000,0.000,6.501,No
 Zone Internal Gains Nominal, DU_BT=SPACE FUNCTION_ST=DWELLING UNITS GENERAL_FL=BUILDING STORY 9_SCHG 5,88.25,3.5,24.991,4.001E-002,3.000,3.501,0.000,0.000,0.000,0.000,6.501,No
 Zone Internal Gains Nominal, DU_BT=SPACE FUNCTION_ST=DWELLING UNITS GENERAL_FL=BUILDING STORY 9_SCHG 6,88.25,3.5,24.991,4.001E-002,3.000,3.501,0.000,0.000,0.000,0.000,6.501,No
 Zone Internal Gains Nominal, DU_BT=SPACE FUNCTION_ST=DWELLING UNITS GENERAL_FL=BUILDING STORY 9_SCHG 7,88.25,3.5,24.991,4.001E-002,3.000,3.501,0.000,0.000,0.000,0.000,6.501,No
 Zone Internal Gains Nominal, WILD_ST=CORRIDOR/TRANSITION AREA OTHER-SCH-G_FL=BUILDING STORY 10_SCH=G,77.66,0.8,99.964,1.000E-002,2.640,0.000,0.000,0.000,0.000,0.000,2.640,No
 Zone Internal Gains Nominal, WILD_ST=CORRIDOR/TRANSITION AREA OTHER-SCH-G_FL=BUILDING STORY 1_SCH=G,77.66,0.8,99.964,1.000E-002,2.640,0.000,0.000,0.000,0.000,0.000,2.640,No
 Zone Internal Gains Nominal, WILD_ST=CORRIDOR/TRANSITION AREA OTHER-SCH-G_FL=BUILDING STORY 2_SCH=G,77.66,0.8,99.964,1.000E-002,2.640,0.000,0.000,0.000,0.000,0.000,2.640,No
 Zone Internal Gains Nominal, WILD_ST=CORRIDOR/TRANSITION AREA OTHER-SCH-G_FL=BUILDING STORY 3_SCH=G,77.66,0.8,99.964,1.000E-002,2.640,0.000,0.000,0.000,0.000,0.000,2.640,No
 Zone Internal Gains Nominal, WILD_ST=CORRIDOR/TRANSITION AREA OTHER-SCH-G_FL=BUILDING STORY 4_SCH=G,77.66,0.8,99.964,1.000E-002,2.640,0.000,0.000,0.000,0.000,0.000,2.640,No
 Zone Internal Gains Nominal, WILD_ST=CORRIDOR/TRANSITION AREA OTHER-SCH-G_FL=BUILDING STORY 5_SCH=G,77.66,0.8,99.964,1.000E-002,2.640,0.000,0.000,0.000,0.000,0.000,2.640,No
 Zone Internal Gains Nominal, WILD_ST=CORRIDOR/TRANSITION AREA OTHER-SCH-G_FL=BUILDING STORY 6_SCH=G,77.66,0.8,99.964,1.000E-002,2.640,0.000,0.000,0.000,0.000,0.000,2.640,No
 Zone Internal Gains Nominal, WILD_ST=CORRIDOR/TRANSITION AREA OTHER-SCH-G_FL=BUILDING STORY 7_SCH=G,77.66,0.8,99.964,1.000E-002,2.640,0.000,0.000,0.000,0.000,0.000,2.640,No
 Zone Internal Gains Nominal, WILD_ST=CORRIDOR/TRANSITION AREA OTHER-SCH-G_FL=BUILDING STORY 8_SCH=G,77.66,0.8,99.964,1.000E-002,2.640,0.000,0.000,0.000,0.000,0.000,2.640,No
 Zone Internal Gains Nominal, WILD_ST=CORRIDOR/TRANSITION AREA OTHER-SCH-G_FL=BUILDING STORY 9_SCH=G,77.66,0.8,99.964,1.000E-002,2.640,0.000,0.000,0.000,0.000,0.000,2.640,No
! <People Internal Gains Nominal>,Name,Schedule Name,Zone Name,Zone Floor Area {m2},# Zone Occupants,Number of People {},People/Floor Area {person/m2},Floor Area per person {m2/person},Fraction Radiant,Fraction Convected,Sensible Fraction Calculation,Activity level,ASHRAE 55 Warnings,Carbon Dioxide Generation Rate,Nominal Minimum Number of People,Nominal Maximum Number of People
 People Internal Gains Nominal, WILD_ST=CORRIDOR/TRANSITION AREA OTHER-SCH-G_FL=BUILDING STORY 10_SCH=G SPACE FUNCTION CORRIDOR/TRANSITION AREA OTHER-SCH-G PEOPLE,NECB-G-OCCUPANCY,WILD_ST=CORRIDOR/TRANSITION AREA OTHER-SCH-G_FL=BUILDING STORY 10_SCH=G,77.66,0.8,0.8,1.000E-002,99.964,0.300,0.700,AutoCalculate,NECB-ACTIVITY,No,3.8200E-008,0,1
 People Internal Gains Nominal, WILD_ST=CORRIDOR/TRANSITION AREA OTHER-SCH-G_FL=BUILDING STORY 1_SCH=G SPACE FUNCTION CORRIDOR/TRANSITION AREA OTHER-SCH-G PEOPLE,NECB-G-OCCUPANCY,WILD_ST=CORRIDOR/TRANSITION AREA OTHER-SCH-G_FL=BUILDING STORY 1_SCH=G,77.66,0.8,0.8,1.000E-002,99.964,0.300,0.700,AutoCalculate,NECB-ACTIVITY,No,3.8200E-008,0,1
 People Internal Gains Nominal, WILD_ST=CORRIDOR/TRANSITION AREA OTHER-SCH-G_FL=BUILDING STORY 2_SCH=G SPACE FUNCTION CORRIDOR/TRANSITION AREA OTHER-SCH-G PEOPLE,NECB-G-OCCUPANCY,WILD_ST=CORRIDOR/TRANSITION AREA OTHER-SCH-G_FL=BUILDING STORY 2_SCH=G,77.66,0.8,0.8,1.000E-002,99.964,0.300,0.700,AutoCalculate,NECB-ACTIVITY,No,3.8200E-008,0,1
 People Internal Gains Nominal, WILD_ST=CORRIDOR/TRANSITION AREA OTHER-SCH-G_FL=BUILDING STORY 3_SCH=G SPACE FUNCTION CORRIDOR/TRANSITION AREA OTHER-SCH-G PEOPLE,NECB-G-OCCUPANCY,WILD_ST=CORRIDOR/TRANSITION AREA OTHER-SCH-G_FL=BUILDING STORY 3_SCH=G,77.66,0.8,0.8,1.000E-002,99.964,0.300,0.700,AutoCalculate,NECB-ACTIVITY,No,3.8200E-008,0,1
 People Internal Gains Nominal, WILD_ST=CORRIDOR/TRANSITION AREA OTHER-SCH-G_FL=BUILDING STORY 4_SCH=G SPACE FUNCTION CORRIDOR/TRANSITION AREA OTHER-SCH-G PEOPLE,NECB-G-OCCUPANCY,WILD_ST=CORRIDOR/TRANSITION AREA OTHER-SCH-G_FL=BUILDING STORY 4_SCH=G,77.66,0.8,0.8,1.000E-002,99.964,0.300,0.700,AutoCalculate,NECB-ACTIVITY,No,3.8200E-008,0,1
 People Internal Gains Nominal, WILD_ST=CORRIDOR/TRANSITION AREA OTHER-SCH-G_FL=BUILDING STORY 5_SCH=G SPACE FUNCTION CORRIDOR/TRANSITION AREA OTHER-SCH-G PEOPLE,NECB-G-OCCUPANCY,WILD_ST=CORRIDOR/TRANSITION AREA OTHER-SCH-G_FL=BUILDING STORY 5_SCH=G,77.66,0.8,0.8,1.000E-002,99.964,0.300,0.700,AutoCalculate,NECB-ACTIVITY,No,3.8200E-008,0,1
 People Internal Gains Nominal, WILD_ST=CORRIDOR/TRANSITION AREA OTHER-SCH-G_FL=BUILDING STORY 6_SCH=G SPACE FUNCTION CORRIDOR/TRANSITION AREA OTHER-SCH-G PEOPLE,NECB-G-OCCUPANCY,WILD_ST=CORRIDOR/TRANSITION AREA OTHER-SCH-G_FL=BUILDING STORY 6_SCH=G,77.66,0.8,0.8,1.000E-002,99.964,0.300,0.700,AutoCalculate,NECB-ACTIVITY,No,3.8200E-008,0,1
 People Internal Gains Nominal, WILD_ST=CORRIDOR/TRANSITION AREA OTHER-SCH-G_FL=BUILDING STORY 7_SCH=G SPACE FUNCTION CORRIDOR/TRANSITION AREA OTHER-SCH-G PEOPLE,NECB-G-OCCUPANCY,WILD_ST=CORRIDOR/TRANSITION AREA OTHER-SCH-G_FL=BUILDING STORY 7_SCH=G,77.66,0.8,0.8,1.000E-002,99.964,0.300,0.700,AutoCalculate,NECB-ACTIVITY,No,3.8200E-008,0,1
 People Internal Gains Nominal, WILD_ST=CORRIDOR/TRANSITION AREA OTHER-SCH-G_FL=BUILDING STORY 8_SCH=G SPACE FUNCTION CORRIDOR/TRANSITION AREA OTHER-SCH-G PEOPLE,NECB-G-OCCUPANCY,WILD_ST=CORRIDOR/TRANSITION AREA OTHER-SCH-G_FL=BUILDING STORY 8_SCH=G,77.66,0.8,0.8,1.000E-002,99.964,0.300,0.700,AutoCalculate,NECB-ACTIVITY,No,3.8200E-008,0,1
 People Internal Gains Nominal, WILD_ST=CORRIDOR/TRANSITION AREA OTHER-SCH-G_FL=BUILDING STORY 9_SCH=G SPACE FUNCTION CORRIDOR/TRANSITION AREA OTHER-SCH-G PEOPLE,NECB-G-OCCUPANCY,WILD_ST=CORRIDOR/TRANSITION AREA OTHER-SCH-G_FL=BUILDING STORY 9_SCH=G,77.66,0.8,0.8,1.000E-002,99.964,0.300,0.700,AutoCalculate,NECB-ACTIVITY,No,3.8200E-008,0,1
 People Internal Gains Nominal, DU_BT=SPACE FUNCTION_ST=DWELLING UNITS GENERAL_FL=BUILDING STORY 10_SCHG SPACE FUNCTION DWELLING UNITS GENERAL PEOPLE,NECB-G-OCCUPANCY,DU_BT=SPACE FUNCTION_ST=DWELLING UNITS GENERAL_FL=BUILDING STORY 10_SCHG,88.25,3.5,3.5,4.001E-002,24.991,0.300,0.700,AutoCalculate,NECB-ACTIVITY,No,3.8200E-008,1,3
 People Internal Gains Nominal, DU_BT=SPACE FUNCTION_ST=DWELLING UNITS GENERAL_FL=BUILDING STORY 10_SCHG 1 SPACE FUNCTION DWELLING UNITS GENERAL PEOPLE,NECB-G-OCCUPANCY,DU_BT=SPACE FUNCTION_ST=DWELLING UNITS GENERAL_FL=BUILDING STORY 10_SCHG 1,88.25,3.5,3.5,4.001E-002,24.991,0.300,0.700,AutoCalculate,NECB-ACTIVITY,No,3.8200E-008,1,3
 People Internal Gains Nominal, DU_BT=SPACE FUNCTION_ST=DWELLING UNITS GENERAL_FL=BUILDING STORY 10_SCHG 2 SPACE FUNCTION DWELLING UNITS GENERAL PEOPLE,NECB-G-OCCUPANCY,DU_BT=SPACE FUNCTION_ST=DWELLING UNITS GENERAL_FL=BUILDING STORY 10_SCHG 2,88.25,3.5,3.5,4.001E-002,24.991,0.300,0.700,AutoCalculate,NECB-ACTIVITY,No,3.8200E-008,1,3
 People Internal Gains Nominal, DU_BT=SPACE FUNCTION_ST=DWELLING UNITS GENERAL_FL=BUILDING STORY 10_SCHG 3 SPACE FUNCTION DWELLING UNITS GENERAL PEOPLE,NECB-G-OCCUPANCY,DU_BT=SPACE FUNCTION_ST=DWELLING UNITS GENERAL_FL=BUILDING STORY 10_SCHG 3,88.25,3.5,3.5,4.001E-002,24.991,0.300,0.700,AutoCalculate,NECB-ACTIVITY,No,3.8200E-008,1,3
 People Internal Gains Nominal, DU_BT=SPACE FUNCTION_ST=DWELLING UNITS GENERAL_FL=BUILDING STORY 10_SCHG 4 SPACE FUNCTION DWELLING UNITS GENERAL PEOPLE,NECB-G-OCCUPANCY,DU_BT=SPACE FUNCTION_ST=DWELLING UNITS GENERAL_FL=BUILDING STORY 10_SCHG 4,88.25,3.5,3.5,4.001E-002,24.991,0.300,0.700,AutoCalculate,NECB-ACTIVITY,No,3.8200E-008,1,3
 People Internal Gains Nominal, DU_BT=SPACE FUNCTION_ST=DWELLING UNITS GENERAL_FL=BUILDING STORY 10_SCHG 5 SPACE FUNCTION DWELLING UNITS GENERAL PEOPLE,NECB-G-OCCUPANCY,DU_BT=SPACE FUNCTION_ST=DWELLING UNITS GENERAL_FL=BUILDING STORY 10_SCHG 5,88.25,3.5,3.5,4.001E-002,24.991,0.300,0.700,AutoCalculate,NECB-ACTIVITY,No,3.8200E-008,1,3
 People Internal Gains Nominal, DU_BT=SPACE FUNCTION_ST=DWELLING UNITS GENERAL_FL=BUILDING STORY 10_SCHG 6 SPACE FUNCTION DWELLING UNITS GENERAL PEOPLE,NECB-G-OCCUPANCY,DU_BT=SPACE FUNCTION_ST=DWELLING UNITS GENERAL_FL=BUILDING STORY 10_SCHG 6,88.25,3.5,3.5,4.001E-002,24.991,0.300,0.700,AutoCalculate,NECB-ACTIVITY,No,3.8200E-008,1,3
 People Internal Gains Nominal, DU_BT=SPACE FUNCTION_ST=DWELLING UNITS GENERAL_FL=BUILDING STORY 10_SCHG 7 SPACE FUNCTION DWELLING UNITS GENERAL PEOPLE,NECB-G-OCCUPANCY,DU_BT=SPACE FUNCTION_ST=DWELLING UNITS GENERAL_FL=BUILDING STORY 10_SCHG 7,88.25,3.5,3.5,4.001E-002,24.991,0.300,0.700,AutoCalculate,NECB-ACTIVITY,No,3.8200E-008,1,3
 People Internal Gains Nominal, DU_BT=SPACE FUNCTION_ST=DWELLING UNITS GENERAL_FL=BUILDING STORY 1_SCHG SPACE FUNCTION DWELLING UNITS GENERAL PEOPLE,NECB-G-OCCUPANCY,DU_BT=SPACE FUNCTION_ST=DWELLING UNITS GENERAL_FL=BUILDING STORY 1_SCHG,88.25,3.5,3.5,4.001E-002,24.991,0.300,0.700,AutoCalculate,NECB-ACTIVITY,No,3.8200E-008,1,3
 People Internal Gains Nominal, DU_BT=SPACE FUNCTION_ST=DWELLING UNITS GENERAL_FL=BUILDING STORY 1_SCHG 1 SPACE FUNCTION DWELLING UNITS GENERAL PEOPLE,NECB-G-OCCUPANCY,DU_BT=SPACE FUNCTION_ST=DWELLING UNITS GENERAL_FL=BUILDING STORY 1_SCHG 1,88.25,3.5,3.5,4.001E-002,24.991,0.300,0.700,AutoCalculate,NECB-ACTIVITY,No,3.8200E-008,1,3
 People Internal Gains Nominal, DU_BT=SPACE FUNCTION_ST=DWELLING UNITS GENERAL_FL=BUILDING STORY 1_SCHG 2 SPACE FUNCTION DWELLING UNITS GENERAL PEOPLE,NECB-G-OCCUPANCY,DU_BT=SPACE FUNCTION_ST=DWELLING UNITS GENERAL_FL=BUILDING STORY 1_SCHG 2,88.25,3.5,3.5,4.001E-002,24.991,0.300,0.700,AutoCalculate,NECB-ACTIVITY,No,3.8200E-008,1,3
 People Internal Gains Nominal, DU_BT=SPACE FUNCTION_ST=DWELLING UNITS GENERAL_FL=BUILDING STORY 1_SCHG 3 SPACE FUNCTION DWELLING UNITS GENERAL PEOPLE,NECB-G-OCCUPANCY,DU_BT=SPACE FUNCTION_ST=DWELLING UNITS GENERAL_FL=BUILDING STORY 1_SCHG 3,88.25,3.5,3.5,4.001E-002,24.991,0.300,0.700,AutoCalculate,NECB-ACTIVITY,No,3.8200E-008,1,3
 People Internal Gains Nominal, DU_BT=SPACE FUNCTION_ST=DWELLING UNITS GENERAL_FL=BUILDING STORY 1_SCHG 4 SPACE FUNCTION DWELLING UNITS GENERAL PEOPLE,NECB-G-OCCUPANCY,DU_BT=SPACE FUNCTION_ST=DWELLING UNITS GENERAL_FL=BUILDING STORY 1_SCHG 4,88.25,3.5,3.5,4.001E-002,24.991,0.300,0.700,AutoCalculate,NECB-ACTIVITY,No,3.8200E-008,1,3
 People Internal Gains Nominal, DU_BT=SPACE FUNCTION_ST=DWELLING UNITS GENERAL_FL=BUILDING STORY 1_SCHG 5 SPACE FUNCTION DWELLING UNITS GENERAL PEOPLE,NECB-G-OCCUPANCY,DU_BT=SPACE FUNCTION_ST=DWELLING UNITS GENERAL_FL=BUILDING STORY 1_SCHG 5,88.25,3.5,3.5,4.001E-002,24.991,0.300,0.700,AutoCalculate,NECB-ACTIVITY,No,3.8200E-008,1,3
 People Internal Gains Nominal, DU_BT=SPACE FUNCTION_ST=DWELLING UNITS GENERAL_FL=BUILDING STORY 1_SCHG 6 SPACE FUNCTION DWELLING UNITS GENERAL PEOPLE,NECB-G-OCCUPANCY,DU_BT=SPACE FUNCTION_ST=DWELLING UNITS GENERAL_FL=BUILDING STORY 1_SCHG 6,88.25,3.5,3.5,4.001E-002,24.991,0.300,0.700,AutoCalculate,NECB-ACTIVITY,No,3.8200E-008,1,3
 People Internal Gains Nominal, DU_BT=SPACE FUNCTION_ST=DWELLING UNITS GENERAL_FL=BUILDING STORY 2_SCHG SPACE FUNCTION DWELLING UNITS GENERAL PEOPLE,NECB-G-OCCUPANCY,DU_BT=SPACE FUNCTION_ST=DWELLING UNITS GENERAL_FL=BUILDING STORY 2_SCHG,88.25,3.5,3.5,4.001E-002,24.991,0.300,0.700,AutoCalculate,NECB-ACTIVITY,No,3.8200E-008,1,3
 People Internal Gains Nominal, DU_BT=SPACE FUNCTION_ST=DWELLING UNITS GENERAL_FL=BUILDING STORY 2_SCHG 1 SPACE FUNCTION DWELLING UNITS GENERAL PEOPLE,NECB-G-OCCUPANCY,DU_BT=SPACE FUNCTION_ST=DWELLING UNITS GENERAL_FL=BUILDING STORY 2_SCHG 1,88.25,3.5,3.5,4.001E-002,24.991,0.300,0.700,AutoCalculate,NECB-ACTIVITY,No,3.8200E-008,1,3
 People Internal Gains Nominal, DU_BT=SPACE FUNCTION_ST=DWELLING UNITS GENERAL_FL=BUILDING STORY 2_SCHG 2 SPACE FUNCTION DWELLING UNITS GENERAL PEOPLE,NECB-G-OCCUPANCY,DU_BT=SPACE FUNCTION_ST=DWELLING UNITS GENERAL_FL=BUILDING STORY 2_SCHG 2,88.25,3.5,3.5,4.001E-002,24.991,0.300,0.700,AutoCalculate,NECB-ACTIVITY,No,3.8200E-008,1,3
 People Internal Gains Nominal, DU_BT=SPACE FUNCTION_ST=DWELLING UNITS GENERAL_FL=BUILDING STORY 2_SCHG 3 SPACE FUNCTION DWELLING UNITS GENERAL PEOPLE,NECB-G-OCCUPANCY,DU_BT=SPACE FUNCTION_ST=DWELLING UNITS GENERAL_FL=BUILDING STORY 2_SCHG 3,88.25,3.5,3.5,4.001E-002,24.991,0.300,0.700,AutoCalculate,NECB-ACTIVITY,No,3.8200E-008,1,3
 People Internal Gains Nominal, DU_BT=SPACE FUNCTION_ST=DWELLING UNITS GENERAL_FL=BUILDING STORY 2_SCHG 4 SPACE FUNCTION DWELLING UNITS GENERAL PEOPLE,NECB-G-OCCUPANCY,DU_BT=SPACE FUNCTION_ST=DWELLING UNITS GENERAL_FL=BUILDING STORY 2_SCHG 4,88.25,3.5,3.5,4.001E-002,24.991,0.300,0.700,AutoCalculate,NECB-ACTIVITY,No,3.8200E-008,1,3
 People Internal Gains Nominal, DU_BT=SPACE FUNCTION_ST=DWELLING UNITS GENERAL_FL=BUILDING STORY 2_SCHG 5 SPACE FUNCTION DWELLING UNITS GENERAL PEOPLE,NECB-G-OCCUPANCY,DU_BT=SPACE FUNCTION_ST=DWELLING UNITS GENERAL_FL=BUILDING STORY 2_SCHG 5,88.25,3.5,3.5,4.001E-002,24.991,0.300,0.700,AutoCalculate,NECB-ACTIVITY,No,3.8200E-008,1,3
 People Internal Gains Nominal, DU_BT=SPACE FUNCTION_ST=DWELLING UNITS GENERAL_FL=BUILDING STORY 2_SCHG 6 SPACE FUNCTION DWELLING UNITS GENERAL PEOPLE,NECB-G-OCCUPANCY,DU_BT=SPACE FUNCTION_ST=DWELLING UNITS GENERAL_FL=BUILDING STORY 2_SCHG 6,88.25,3.5,3.5,4.001E-002,24.991,0.300,0.700,AutoCalculate,NECB-ACTIVITY,No,3.8200E-008,1,3
 People Internal Gains Nominal, DU_BT=SPACE FUNCTION_ST=DWELLING UNITS GENERAL_FL=BUILDING STORY 2_SCHG 7 SPACE FUNCTION DWELLING UNITS GENERAL PEOPLE,NECB-G-OCCUPANCY,DU_BT=SPACE FUNCTION_ST=DWELLING UNITS GENERAL_FL=BUILDING STORY 2_SCHG 7,88.25,3.5,3.5,4.001E-002,24.991,0.300,0.700,AutoCalculate,NECB-ACTIVITY,No,3.8200E-008,1,3
 People Internal Gains Nominal, DU_BT=SPACE FUNCTION_ST=DWELLING UNITS GENERAL_FL=BUILDING STORY 3_SCHG SPACE FUNCTION DWELLING UNITS GENERAL PEOPLE,NECB-G-OCCUPANCY,DU_BT=SPACE FUNCTION_ST=DWELLING UNITS GENERAL_FL=BUILDING STORY 3_SCHG,88.25,3.5,3.5,4.001E-002,24.991,0.300,0.700,AutoCalculate,NECB-ACTIVITY,No,3.8200E-008,1,3
 People Internal Gains Nominal, DU_BT=SPACE FUNCTION_ST=DWELLING UNITS GENERAL_FL=BUILDING STORY 3_SCHG 1 SPACE FUNCTION DWELLING UNITS GENERAL PEOPLE,NECB-G-OCCUPANCY,DU_BT=SPACE FUNCTION_ST=DWELLING UNITS GENERAL_FL=BUILDING STORY 3_SCHG 1,88.25,3.5,3.5,4.001E-002,24.991,0.300,0.700,AutoCalculate,NECB-ACTIVITY,No,3.8200E-008,1,3
 People Internal Gains Nominal, DU_BT=SPACE FUNCTION_ST=DWELLING UNITS GENERAL_FL=BUILDING STORY 3_SCHG 2 SPACE FUNCTION DWELLING UNITS GENERAL PEOPLE,NECB-G-OCCUPANCY,DU_BT=SPACE FUNCTION_ST=DWELLING UNITS GENERAL_FL=BUILDING STORY 3_SCHG 2,88.25,3.5,3.5,4.001E-002,24.991,0.300,0.700,AutoCalculate,NECB-ACTIVITY,No,3.8200E-008,1,3
 People Internal Gains Nominal, DU_BT=SPACE FUNCTION_ST=DWELLING UNITS GENERAL_FL=BUILDING STORY 3_SCHG 3 SPACE FUNCTION DWELLING UNITS GENERAL PEOPLE,NECB-G-OCCUPANCY,DU_BT=SPACE FUNCTION_ST=DWELLING UNITS GENERAL_FL=BUILDING STORY 3_SCHG 3,88.25,3.5,3.5,4.001E-002,24.991,0.300,0.700,AutoCalculate,NECB-ACTIVITY,No,3.8200E-008,1,3
 People Internal Gains Nominal, DU_BT=SPACE FUNCTION_ST=DWELLING UNITS GENERAL_FL=BUILDING STORY 3_SCHG 4 SPACE FUNCTION DWELLING UNITS GENERAL PEOPLE,NECB-G-OCCUPANCY,DU_BT=SPACE FUNCTION_ST=DWELLING UNITS GENERAL_FL=BUILDING STORY 3_SCHG 4,88.25,3.5,3.5,4.001E-002,24.991,0.300,0.700,AutoCalculate,NECB-ACTIVITY,No,3.8200E-008,1,3
 People Internal Gains Nominal, DU_BT=SPACE FUNCTION_ST=DWELLING UNITS GENERAL_FL=BUILDING STORY 3_SCHG 5 SPACE FUNCTION DWELLING UNITS GENERAL PEOPLE,NECB-G-OCCUPANCY,DU_BT=SPACE FUNCTION_ST=DWELLING UNITS GENERAL_FL=BUILDING STORY 3_SCHG 5,88.25,3.5,3.5,4.001E-002,24.991,0.300,0.700,AutoCalculate,NECB-ACTIVITY,No,3.8200E-008,1,3
 People Internal Gains Nominal, DU_BT=SPACE FUNCTION_ST=DWELLING UNITS GENERAL_FL=BUILDING STORY 3_SCHG 6 SPACE FUNCTION DWELLING UNITS GENERAL PEOPLE,NECB-G-OCCUPANCY,DU_BT=SPACE FUNCTION_ST=DWELLING UNITS GENERAL_FL=BUILDING STORY 3_SCHG 6,88.25,3.5,3.5,4.001E-002,24.991,0.300,0.700,AutoCalculate,NECB-ACTIVITY,No,3.8200E-008,1,3
 People Internal Gains Nominal, DU_BT=SPACE FUNCTION_ST=DWELLING UNITS GENERAL_FL=BUILDING STORY 3_SCHG 7 SPACE FUNCTION DWELLING UNITS GENERAL PEOPLE,NECB-G-OCCUPANCY,DU_BT=SPACE FUNCTION_ST=DWELLING UNITS GENERAL_FL=BUILDING STORY 3_SCHG 7,88.25,3.5,3.5,4.001E-002,24.991,0.300,0.700,AutoCalculate,NECB-ACTIVITY,No,3.8200E-008,1,3
 People Internal Gains Nominal, DU_BT=SPACE FUNCTION_ST=DWELLING UNITS GENERAL_FL=BUILDING STORY 4_SCHG SPACE FUNCTION DWELLING UNITS GENERAL PEOPLE,NECB-G-OCCUPANCY,DU_BT=SPACE FUNCTION_ST=DWELLING UNITS GENERAL_FL=BUILDING STORY 4_SCHG,88.25,3.5,3.5,4.001E-002,24.991,0.300,0.700,AutoCalculate,NECB-ACTIVITY,No,3.8200E-008,1,3
 People Internal Gains Nominal, DU_BT=SPACE FUNCTION_ST=DWELLING UNITS GENERAL_FL=BUILDING STORY 4_SCHG 1 SPACE FUNCTION DWELLING UNITS GENERAL PEOPLE,NECB-G-OCCUPANCY,DU_BT=SPACE FUNCTION_ST=DWELLING UNITS GENERAL_FL=BUILDING STORY 4_SCHG 1,88.25,3.5,3.5,4.001E-002,24.991,0.300,0.700,AutoCalculate,NECB-ACTIVITY,No,3.8200E-008,1,3
 People Internal Gains Nominal, DU_BT=SPACE FUNCTION_ST=DWELLING UNITS GENERAL_FL=BUILDING STORY 4_SCHG 2 SPACE FUNCTION DWELLING UNITS GENERAL PEOPLE,NECB-G-OCCUPANCY,DU_BT=SPACE FUNCTION_ST=DWELLING UNITS GENERAL_FL=BUILDING STORY 4_SCHG 2,88.25,3.5,3.5,4.001E-002,24.991,0.300,0.700,AutoCalculate,NECB-ACTIVITY,No,3.8200E-008,1,3
 People Internal Gains Nominal, DU_BT=SPACE FUNCTION_ST=DWELLING UNITS GENERAL_FL=BUILDING STORY 4_SCHG 3 SPACE FUNCTION DWELLING UNITS GENERAL PEOPLE,NECB-G-OCCUPANCY,DU_BT=SPACE FUNCTION_ST=DWELLING UNITS GENERAL_FL=BUILDING STORY 4_SCHG 3,88.25,3.5,3.5,4.001E-002,24.991,0.300,0.700,AutoCalculate,NECB-ACTIVITY,No,3.8200E-008,1,3
 People Internal Gains Nominal, DU_BT=SPACE FUNCTION_ST=DWELLING UNITS GENERAL_FL=BUILDING STORY 4_SCHG 4 SPACE FUNCTION DWELLING UNITS GENERAL PEOPLE,NECB-G-OCCUPANCY,DU_BT=SPACE FUNCTION_ST=DWELLING UNITS GENERAL_FL=BUILDING STORY 4_SCHG 4,88.25,3.5,3.5,4.001E-002,24.991,0.300,0.700,AutoCalculate,NECB-ACTIVITY,No,3.8200E-008,1,3
 People Internal Gains Nominal, DU_BT=SPACE FUNCTION_ST=DWELLING UNITS GENERAL_FL=BUILDING STORY 4_SCHG 5 SPACE FUNCTION DWELLING UNITS GENERAL PEOPLE,NECB-G-OCCUPANCY,DU_BT=SPACE FUNCTION_ST=DWELLING UNITS GENERAL_FL=BUILDING STORY 4_SCHG 5,88.25,3.5,3.5,4.001E-002,24.991,0.300,0.700,AutoCalculate,NECB-ACTIVITY,No,3.8200E-008,1,3
 People Internal Gains Nominal, DU_BT=SPACE FUNCTION_ST=DWELLING UNITS GENERAL_FL=BUILDING STORY 4_SCHG 6 SPACE FUNCTION DWELLING UNITS GENERAL PEOPLE,NECB-G-OCCUPANCY,DU_BT=SPACE FUNCTION_ST=DWELLING UNITS GENERAL_FL=BUILDING STORY 4_SCHG 6,88.25,3.5,3.5,4.001E-002,24.991,0.300,0.700,AutoCalculate,NECB-ACTIVITY,No,3.8200E-008,1,3
 People Internal Gains Nominal, DU_BT=SPACE FUNCTION_ST=DWELLING UNITS GENERAL_FL=BUILDING STORY 4_SCHG 7 SPACE FUNCTION DWELLING UNITS GENERAL PEOPLE,NECB-G-OCCUPANCY,DU_BT=SPACE FUNCTION_ST=DWELLING UNITS GENERAL_FL=BUILDING STORY 4_SCHG 7,88.25,3.5,3.5,4.001E-002,24.991,0.300,0.700,AutoCalculate,NECB-ACTIVITY,No,3.8200E-008,1,3
 People Internal Gains Nominal, DU_BT=SPACE FUNCTION_ST=DWELLING UNITS GENERAL_FL=BUILDING STORY 5_SCHG SPACE FUNCTION DWELLING UNITS GENERAL PEOPLE,NECB-G-OCCUPANCY,DU_BT=SPACE FUNCTION_ST=DWELLING UNITS GENERAL_FL=BUILDING STORY 5_SCHG,88.25,3.5,3.5,4.001E-002,24.991,0.300,0.700,AutoCalculate,NECB-ACTIVITY,No,3.8200E-008,1,3
 People Internal Gains Nominal, DU_BT=SPACE FUNCTION_ST=DWELLING UNITS GENERAL_FL=BUILDING STORY 5_SCHG 1 SPACE FUNCTION DWELLING UNITS GENERAL PEOPLE,NECB-G-OCCUPANCY,DU_BT=SPACE FUNCTION_ST=DWELLING UNITS GENERAL_FL=BUILDING STORY 5_SCHG 1,88.25,3.5,3.5,4.001E-002,24.991,0.300,0.700,AutoCalculate,NECB-ACTIVITY,No,3.8200E-008,1,3
 People Internal Gains Nominal, DU_BT=SPACE FUNCTION_ST=DWELLING UNITS GENERAL_FL=BUILDING STORY 5_SCHG 2 SPACE FUNCTION DWELLING UNITS GENERAL PEOPLE,NECB-G-OCCUPANCY,DU_BT=SPACE FUNCTION_ST=DWELLING UNITS GENERAL_FL=BUILDING STORY 5_SCHG 2,88.25,3.5,3.5,4.001E-002,24.991,0.300,0.700,AutoCalculate,NECB-ACTIVITY,No,3.8200E-008,1,3
 People Internal Gains Nominal, DU_BT=SPACE FUNCTION_ST=DWELLING UNITS GENERAL_FL=BUILDING STORY 5_SCHG 3 SPACE FUNCTION DWELLING UNITS GENERAL PEOPLE,NECB-G-OCCUPANCY,DU_BT=SPACE FUNCTION_ST=DWELLING UNITS GENERAL_FL=BUILDING STORY 5_SCHG 3,88.25,3.5,3.5,4.001E-002,24.991,0.300,0.700,AutoCalculate,NECB-ACTIVITY,No,3.8200E-008,1,3
 People Internal Gains Nominal, DU_BT=SPACE FUNCTION_ST=DWELLING UNITS GENERAL_FL=BUILDING STORY 5_SCHG 4 SPACE FUNCTION DWELLING UNITS GENERAL PEOPLE,NECB-G-OCCUPANCY,DU_BT=SPACE FUNCTION_ST=DWELLING UNITS GENERAL_FL=BUILDING STORY 5_SCHG 4,88.25,3.5,3.5,4.001E-002,24.991,0.300,0.700,AutoCalculate,NECB-ACTIVITY,No,3.8200E-008,1,3
 People Internal Gains Nominal, DU_BT=SPACE FUNCTION_ST=DWELLING UNITS GENERAL_FL=BUILDING STORY 5_SCHG 5 SPACE FUNCTION DWELLING UNITS GENERAL PEOPLE,NECB-G-OCCUPANCY,DU_BT=SPACE FUNCTION_ST=DWELLING UNITS GENERAL_FL=BUILDING STORY 5_SCHG 5,88.25,3.5,3.5,4.001E-002,24.991,0.300,0.700,AutoCalculate,NECB-ACTIVITY,No,3.8200E-008,1,3
 People Internal Gains Nominal, DU_BT=SPACE FUNCTION_ST=DWELLING UNITS GENERAL_FL=BUILDING STORY 5_SCHG 6 SPACE FUNCTION DWELLING UNITS GENERAL PEOPLE,NECB-G-OCCUPANCY,DU_BT=SPACE FUNCTION_ST=DWELLING UNITS GENERAL_FL=BUILDING STORY 5_SCHG 6,88.25,3.5,3.5,4.001E-002,24.991,0.300,0.700,AutoCalculate,NECB-ACTIVITY,No,3.8200E-008,1,3
 People Internal Gains Nominal, DU_BT=SPACE FUNCTION_ST=DWELLING UNITS GENERAL_FL=BUILDING STORY 5_SCHG 7 SPACE FUNCTION DWELLING UNITS GENERAL PEOPLE,NECB-G-OCCUPANCY,DU_BT=SPACE FUNCTION_ST=DWELLING UNITS GENERAL_FL=BUILDING STORY 5_SCHG 7,88.25,3.5,3.5,4.001E-002,24.991,0.300,0.700,AutoCalculate,NECB-ACTIVITY,No,3.8200E-008,1,3
 People Internal Gains Nominal, DU_BT=SPACE FUNCTION_ST=DWELLING UNITS GENERAL_FL=BUILDING STORY 6_SCHG SPACE FUNCTION DWELLING UNITS GENERAL PEOPLE,NECB-G-OCCUPANCY,DU_BT=SPACE FUNCTION_ST=DWELLING UNITS GENERAL_FL=BUILDING STORY 6_SCHG,88.25,3.5,3.5,4.001E-002,24.991,0.300,0.700,AutoCalculate,NECB-ACTIVITY,No,3.8200E-008,1,3
 People Internal Gains Nominal, DU_BT=SPACE FUNCTION_ST=DWELLING UNITS GENERAL_FL=BUILDING STORY 6_SCHG 1 SPACE FUNCTION DWELLING UNITS GENERAL PEOPLE,NECB-G-OCCUPANCY,DU_BT=SPACE FUNCTION_ST=DWELLING UNITS GENERAL_FL=BUILDING STORY 6_SCHG 1,88.25,3.5,3.5,4.001E-002,24.991,0.300,0.700,AutoCalculate,NECB-ACTIVITY,No,3.8200E-008,1,3
 People Internal Gains Nominal, DU_BT=SPACE FUNCTION_ST=DWELLING UNITS GENERAL_FL=BUILDING STORY 6_SCHG 2 SPACE FUNCTION DWELLING UNITS GENERAL PEOPLE,NECB-G-OCCUPANCY,DU_BT=SPACE FUNCTION_ST=DWELLING UNITS GENERAL_FL=BUILDING STORY 6_SCHG 2,88.25,3.5,3.5,4.001E-002,24.991,0.300,0.700,AutoCalculate,NECB-ACTIVITY,No,3.8200E-008,1,3
 People Internal Gains Nominal, DU_BT=SPACE FUNCTION_ST=DWELLING UNITS GENERAL_FL=BUILDING STORY 6_SCHG 3 SPACE FUNCTION DWELLING UNITS GENERAL PEOPLE,NECB-G-OCCUPANCY,DU_BT=SPACE FUNCTION_ST=DWELLING UNITS GENERAL_FL=BUILDING STORY 6_SCHG 3,88.25,3.5,3.5,4.001E-002,24.991,0.300,0.700,AutoCalculate,NECB-ACTIVITY,No,3.8200E-008,1,3
 People Internal Gains Nominal, DU_BT=SPACE FUNCTION_ST=DWELLING UNITS GENERAL_FL=BUILDING STORY 6_SCHG 4 SPACE FUNCTION DWELLING UNITS GENERAL PEOPLE,NECB-G-OCCUPANCY,DU_BT=SPACE FUNCTION_ST=DWELLING UNITS GENERAL_FL=BUILDING STORY 6_SCHG 4,88.25,3.5,3.5,4.001E-002,24.991,0.300,0.700,AutoCalculate,NECB-ACTIVITY,No,3.8200E-008,1,3
 People Internal Gains Nominal, DU_BT=SPACE FUNCTION_ST=DWELLING UNITS GENERAL_FL=BUILDING STORY 6_SCHG 5 SPACE FUNCTION DWELLING UNITS GENERAL PEOPLE,NECB-G-OCCUPANCY,DU_BT=SPACE FUNCTION_ST=DWELLING UNITS GENERAL_FL=BUILDING STORY 6_SCHG 5,88.25,3.5,3.5,4.001E-002,24.991,0.300,0.700,AutoCalculate,NECB-ACTIVITY,No,3.8200E-008,1,3
 People Internal Gains Nominal, DU_BT=SPACE FUNCTION_ST=DWELLING UNITS GENERAL_FL=BUILDING STORY 6_SCHG 6 SPACE FUNCTION DWELLING UNITS GENERAL PEOPLE,NECB-G-OCCUPANCY,DU_BT=SPACE FUNCTION_ST=DWELLING UNITS GENERAL_FL=BUILDING STORY 6_SCHG 6,88.25,3.5,3.5,4.001E-002,24.991,0.300,0.700,AutoCalculate,NECB-ACTIVITY,No,3.8200E-008,1,3
 People Internal Gains Nominal, DU_BT=SPACE FUNCTION_ST=DWELLING UNITS GENERAL_FL=BUILDING STORY 6_SCHG 7 SPACE FUNCTION DWELLING UNITS GENERAL PEOPLE,NECB-G-OCCUPANCY,DU_BT=SPACE FUNCTION_ST=DWELLING UNITS GENERAL_FL=BUILDING STORY 6_SCHG 7,88.25,3.5,3.5,4.001E-002,24.991,0.300,0.700,AutoCalculate,NECB-ACTIVITY,No,3.8200E-008,1,3
 People Internal Gains Nominal, DU_BT=SPACE FUNCTION_ST=DWELLING UNITS GENERAL_FL=BUILDING STORY 7_SCHG SPACE FUNCTION DWELLING UNITS GENERAL PEOPLE,NECB-G-OCCUPANCY,DU_BT=SPACE FUNCTION_ST=DWELLING UNITS GENERAL_FL=BUILDING STORY 7_SCHG,88.25,3.5,3.5,4.001E-002,24.991,0.300,0.700,AutoCalculate,NECB-ACTIVITY,No,3.8200E-008,1,3
 People Internal Gains Nominal, DU_BT=SPACE FUNCTION_ST=DWELLING UNITS GENERAL_FL=BUILDING STORY 7_SCHG 1 SPACE FUNCTION DWELLING UNITS GENERAL PEOPLE,NECB-G-OCCUPANCY,DU_BT=SPACE FUNCTION_ST=DWELLING UNITS GENERAL_FL=BUILDING STORY 7_SCHG 1,88.25,3.5,3.5,4.001E-002,24.991,0.300,0.700,AutoCalculate,NECB-ACTIVITY,No,3.8200E-008,1,3
 People Internal Gains Nominal, DU_BT=SPACE FUNCTION_ST=DWELLING UNITS GENERAL_FL=BUILDING STORY 7_SCHG 2 SPACE FUNCTION DWELLING UNITS GENERAL PEOPLE,NECB-G-OCCUPANCY,DU_BT=SPACE FUNCTION_ST=DWELLING UNITS GENERAL_FL=BUILDING STORY 7_SCHG 2,88.25,3.5,3.5,4.001E-002,24.991,0.300,0.700,AutoCalculate,NECB-ACTIVITY,No,3.8200E-008,1,3
 People Internal Gains Nominal, DU_BT=SPACE FUNCTION_ST=DWELLING UNITS GENERAL_FL=BUILDING STORY 7_SCHG 3 SPACE FUNCTION DWELLING UNITS GENERAL PEOPLE,NECB-G-OCCUPANCY,DU_BT=SPACE FUNCTION_ST=DWELLING UNITS GENERAL_FL=BUILDING STORY 7_SCHG 3,88.25,3.5,3.5,4.001E-002,24.991,0.300,0.700,AutoCalculate,NECB-ACTIVITY,No,3.8200E-008,1,3
 People Internal Gains Nominal, DU_BT=SPACE FUNCTION_ST=DWELLING UNITS GENERAL_FL=BUILDING STORY 7_SCHG 4 SPACE FUNCTION DWELLING UNITS GENERAL PEOPLE,NECB-G-OCCUPANCY,DU_BT=SPACE FUNCTION_ST=DWELLING UNITS GENERAL_FL=BUILDING STORY 7_SCHG 4,88.25,3.5,3.5,4.001E-002,24.991,0.300,0.700,AutoCalculate,NECB-ACTIVITY,No,3.8200E-008,1,3
 People Internal Gains Nominal, DU_BT=SPACE FUNCTION_ST=DWELLING UNITS GENERAL_FL=BUILDING STORY 7_SCHG 5 SPACE FUNCTION DWELLING UNITS GENERAL PEOPLE,NECB-G-OCCUPANCY,DU_BT=SPACE FUNCTION_ST=DWELLING UNITS GENERAL_FL=BUILDING STORY 7_SCHG 5,88.25,3.5,3.5,4.001E-002,24.991,0.300,0.700,AutoCalculate,NECB-ACTIVITY,No,3.8200E-008,1,3
 People Internal Gains Nominal, DU_BT=SPACE FUNCTION_ST=DWELLING UNITS GENERAL_FL=BUILDING STORY 7_SCHG 6 SPACE FUNCTION DWELLING UNITS GENERAL PEOPLE,NECB-G-OCCUPANCY,DU_BT=SPACE FUNCTION_ST=DWELLING UNITS GENERAL_FL=BUILDING STORY 7_SCHG 6,88.25,3.5,3.5,4.001E-002,24.991,0.300,0.700,AutoCalculate,NECB-ACTIVITY,No,3.8200E-008,1,3
 People Internal Gains Nominal, DU_BT=SPACE FUNCTION_ST=DWELLING UNITS GENERAL_FL=BUILDING STORY 7_SCHG 7 SPACE FUNCTION DWELLING UNITS GENERAL PEOPLE,NECB-G-OCCUPANCY,DU_BT=SPACE FUNCTION_ST=DWELLING UNITS GENERAL_FL=BUILDING STORY 7_SCHG 7,88.25,3.5,3.5,4.001E-002,24.991,0.300,0.700,AutoCalculate,NECB-ACTIVITY,No,3.8200E-008,1,3
 People Internal Gains Nominal, DU_BT=SPACE FUNCTION_ST=DWELLING UNITS GENERAL_FL=BUILDING STORY 8_SCHG SPACE FUNCTION DWELLING UNITS GENERAL PEOPLE,NECB-G-OCCUPANCY,DU_BT=SPACE FUNCTION_ST=DWELLING UNITS GENERAL_FL=BUILDING STORY 8_SCHG,88.25,3.5,3.5,4.001E-002,24.991,0.300,0.700,AutoCalculate,NECB-ACTIVITY,No,3.8200E-008,1,3
 People Internal Gains Nominal, DU_BT=SPACE FUNCTION_ST=DWELLING UNITS GENERAL_FL=BUILDING STORY 8_SCHG 1 SPACE FUNCTION DWELLING UNITS GENERAL PEOPLE,NECB-G-OCCUPANCY,DU_BT=SPACE FUNCTION_ST=DWELLING UNITS GENERAL_FL=BUILDING STORY 8_SCHG 1,88.25,3.5,3.5,4.001E-002,24.991,0.300,0.700,AutoCalculate,NECB-ACTIVITY,No,3.8200E-008,1,3
 People Internal Gains Nominal, DU_BT=SPACE FUNCTION_ST=DWELLING UNITS GENERAL_FL=BUILDING STORY 8_SCHG 2 SPACE FUNCTION DWELLING UNITS GENERAL PEOPLE,NECB-G-OCCUPANCY,DU_BT=SPACE FUNCTION_ST=DWELLING UNITS GENERAL_FL=BUILDING STORY 8_SCHG 2,88.25,3.5,3.5,4.001E-002,24.991,0.300,0.700,AutoCalculate,NECB-ACTIVITY,No,3.8200E-008,1,3
 People Internal Gains Nominal, DU_BT=SPACE FUNCTION_ST=DWELLING UNITS GENERAL_FL=BUILDING STORY 8_SCHG 3 SPACE FUNCTION DWELLING UNITS GENERAL PEOPLE,NECB-G-OCCUPANCY,DU_BT=SPACE FUNCTION_ST=DWELLING UNITS GENERAL_FL=BUILDING STORY 8_SCHG 3,88.25,3.5,3.5,4.001E-002,24.991,0.300,0.700,AutoCalculate,NECB-ACTIVITY,No,3.8200E-008,1,3
 People Internal Gains Nominal, DU_BT=SPACE FUNCTION_ST=DWELLING UNITS GENERAL_FL=BUILDING STORY 8_SCHG 4 SPACE FUNCTION DWELLING UNITS GENERAL PEOPLE,NECB-G-OCCUPANCY,DU_BT=SPACE FUNCTION_ST=DWELLING UNITS GENERAL_FL=BUILDING STORY 8_SCHG 4,88.25,3.5,3.5,4.001E-002,24.991,0.300,0.700,AutoCalculate,NECB-ACTIVITY,No,3.8200E-008,1,3
 People Internal Gains Nominal, DU_BT=SPACE FUNCTION_ST=DWELLING UNITS GENERAL_FL=BUILDING STORY 8_SCHG 5 SPACE FUNCTION DWELLING UNITS GENERAL PEOPLE,NECB-G-OCCUPANCY,DU_BT=SPACE FUNCTION_ST=DWELLING UNITS GENERAL_FL=BUILDING STORY 8_SCHG 5,88.25,3.5,3.5,4.001E-002,24.991,0.300,0.700,AutoCalculate,NECB-ACTIVITY,No,3.8200E-008,1,3
 People Internal Gains Nominal, DU_BT=SPACE FUNCTION_ST=DWELLING UNITS GENERAL_FL=BUILDING STORY 8_SCHG 6 SPACE FUNCTION DWELLING UNITS GENERAL PEOPLE,NECB-G-OCCUPANCY,DU_BT=SPACE FUNCTION_ST=DWELLING UNITS GENERAL_FL=BUILDING STORY 8_SCHG 6,88.25,3.5,3.5,4.001E-002,24.991,0.300,0.700,AutoCalculate,NECB-ACTIVITY,No,3.8200E-008,1,3
 People Internal Gains Nominal, DU_BT=SPACE FUNCTION_ST=DWELLING UNITS GENERAL_FL=BUILDING STORY 8_SCHG 7 SPACE FUNCTION DWELLING UNITS GENERAL PEOPLE,NECB-G-OCCUPANCY,DU_BT=SPACE FUNCTION_ST=DWELLING UNITS GENERAL_FL=BUILDING STORY 8_SCHG 7,88.25,3.5,3.5,4.001E-002,24.991,0.300,0.700,AutoCalculate,NECB-ACTIVITY,No,3.8200E-008,1,3
 People Internal Gains Nominal, DU_BT=SPACE FUNCTION_ST=DWELLING UNITS GENERAL_FL=BUILDING STORY 9_SCHG SPACE FUNCTION DWELLING UNITS GENERAL PEOPLE,NECB-G-OCCUPANCY,DU_BT=SPACE FUNCTION_ST=DWELLING UNITS GENERAL_FL=BUILDING STORY 9_SCHG,88.25,3.5,3.5,4.001E-002,24.991,0.300,0.700,AutoCalculate,NECB-ACTIVITY,No,3.8200E-008,1,3
 People Internal Gains Nominal, DU_BT=SPACE FUNCTION_ST=DWELLING UNITS GENERAL_FL=BUILDING STORY 9_SCHG 1 SPACE FUNCTION DWELLING UNITS GENERAL PEOPLE,NECB-G-OCCUPANCY,DU_BT=SPACE FUNCTION_ST=DWELLING UNITS GENERAL_FL=BUILDING STORY 9_SCHG 1,88.25,3.5,3.5,4.001E-002,24.991,0.300,0.700,AutoCalculate,NECB-ACTIVITY,No,3.8200E-008,1,3
 People Internal Gains Nominal, DU_BT=SPACE FUNCTION_ST=DWELLING UNITS GENERAL_FL=BUILDING STORY 9_SCHG 2 SPACE FUNCTION DWELLING UNITS GENERAL PEOPLE,NECB-G-OCCUPANCY,DU_BT=SPACE FUNCTION_ST=DWELLING UNITS GENERAL_FL=BUILDING STORY 9_SCHG 2,88.25,3.5,3.5,4.001E-002,24.991,0.300,0.700,AutoCalculate,NECB-ACTIVITY,No,3.8200E-008,1,3
 People Internal Gains Nominal, DU_BT=SPACE FUNCTION_ST=DWELLING UNITS GENERAL_FL=BUILDING STORY 9_SCHG 3 SPACE FUNCTION DWELLING UNITS GENERAL PEOPLE,NECB-G-OCCUPANCY,DU_BT=SPACE FUNCTION_ST=DWELLING UNITS GENERAL_FL=BUILDING STORY 9_SCHG 3,88.25,3.5,3.5,4.001E-002,24.991,0.300,0.700,AutoCalculate,NECB-ACTIVITY,No,3.8200E-008,1,3
 People Internal Gains Nominal, DU_BT=SPACE FUNCTION_ST=DWELLING UNITS GENERAL_FL=BUILDING STORY 9_SCHG 4 SPACE FUNCTION DWELLING UNITS GENERAL PEOPLE,NECB-G-OCCUPANCY,DU_BT=SPACE FUNCTION_ST=DWELLING UNITS GENERAL_FL=BUILDING STORY 9_SCHG 4,88.25,3.5,3.5,4.001E-002,24.991,0.300,0.700,AutoCalculate,NECB-ACTIVITY,No,3.8200E-008,1,3
 People Internal Gains Nominal, DU_BT=SPACE FUNCTION_ST=DWELLING UNITS GENERAL_FL=BUILDING STORY 9_SCHG 5 SPACE FUNCTION DWELLING UNITS GENERAL PEOPLE,NECB-G-OCCUPANCY,DU_BT=SPACE FUNCTION_ST=DWELLING UNITS GENERAL_FL=BUILDING STORY 9_SCHG 5,88.25,3.5,3.5,4.001E-002,24.991,0.300,0.700,AutoCalculate,NECB-ACTIVITY,No,3.8200E-008,1,3
 People Internal Gains Nominal, DU_BT=SPACE FUNCTION_ST=DWELLING UNITS GENERAL_FL=BUILDING STORY 9_SCHG 6 SPACE FUNCTION DWELLING UNITS GENERAL PEOPLE,NECB-G-OCCUPANCY,DU_BT=SPACE FUNCTION_ST=DWELLING UNITS GENERAL_FL=BUILDING STORY 9_SCHG 6,88.25,3.5,3.5,4.001E-002,24.991,0.300,0.700,AutoCalculate,NECB-ACTIVITY,No,3.8200E-008,1,3
 People Internal Gains Nominal, DU_BT=SPACE FUNCTION_ST=DWELLING UNITS GENERAL_FL=BUILDING STORY 9_SCHG 7 SPACE FUNCTION DWELLING UNITS GENERAL PEOPLE,NECB-G-OCCUPANCY,DU_BT=SPACE FUNCTION_ST=DWELLING UNITS GENERAL_FL=BUILDING STORY 9_SCHG 7,88.25,3.5,3.5,4.001E-002,24.991,0.300,0.700,AutoCalculate,NECB-ACTIVITY,No,3.8200E-008,1,3
 People Internal Gains Nominal, ALL_ST=OFFICE ENCLOSED <= 25 M2_FL=BUILDING STORY 1_SCH=A SPACE FUNCTION OFFICE ENCLOSED <= 25 M2 PEOPLE,NECB-A-OCCUPANCY,ALL_ST=OFFICE ENCLOSED <= 25 M2_FL=BUILDING STORY 1_SCH=A,88.25,4.4,4.4,5.002E-002,19.993,0.300,0.700,AutoCalculate,NECB-ACTIVITY,No,3.8200E-008,0,4
! <Lights Internal Gains Nominal>,Name,Schedule Name,Zone Name,Zone Floor Area {m2},# Zone Occupants,Lighting Level {W},Lights/Floor Area {W/m2},Lights per person {W/person},Fraction Return Air,Fraction Radiant,Fraction Short Wave,Fraction Convected,Fraction Replaceable,End-Use Category,Nominal Minimum Lighting Level {W},Nominal Maximum Lighting Level {W}
 Lights Internal Gains Nominal, WILD_ST=CORRIDOR/TRANSITION AREA OTHER-SCH-G_FL=BUILDING STORY 10_SCH=G SPACE FUNCTION CORRIDOR/TRANSITION AREA OTHER-SCH-G LIGHTS,NECB-G-LIGHTING,WILD_ST=CORRIDOR/TRANSITION AREA OTHER-SCH-G_FL=BUILDING STORY 10_SCH=G,77.66,0.8,205.018,2.640,263.904,0.000,0.500,0.200,0.300,1.000,General,0.000,184.516
 Lights Internal Gains Nominal, WILD_ST=CORRIDOR/TRANSITION AREA OTHER-SCH-G_FL=BUILDING STORY 1_SCH=G SPACE FUNCTION CORRIDOR/TRANSITION AREA OTHER-SCH-G LIGHTS,NECB-G-LIGHTING,WILD_ST=CORRIDOR/TRANSITION AREA OTHER-SCH-G_FL=BUILDING STORY 1_SCH=G,77.66,0.8,205.018,2.640,263.904,0.000,0.500,0.200,0.300,1.000,General,0.000,184.516
 Lights Internal Gains Nominal, WILD_ST=CORRIDOR/TRANSITION AREA OTHER-SCH-G_FL=BUILDING STORY 2_SCH=G SPACE FUNCTION CORRIDOR/TRANSITION AREA OTHER-SCH-G LIGHTS,NECB-G-LIGHTING,WILD_ST=CORRIDOR/TRANSITION AREA OTHER-SCH-G_FL=BUILDING STORY 2_SCH=G,77.66,0.8,205.018,2.640,263.904,0.000,0.500,0.200,0.300,1.000,General,0.000,184.516
 Lights Internal Gains Nominal, WILD_ST=CORRIDOR/TRANSITION AREA OTHER-SCH-G_FL=BUILDING STORY 3_SCH=G SPACE FUNCTION CORRIDOR/TRANSITION AREA OTHER-SCH-G LIGHTS,NECB-G-LIGHTING,WILD_ST=CORRIDOR/TRANSITION AREA OTHER-SCH-G_FL=BUILDING STORY 3_SCH=G,77.66,0.8,205.018,2.640,263.904,0.000,0.500,0.200,0.300,1.000,General,0.000,184.516
 Lights Internal Gains Nominal, WILD_ST=CORRIDOR/TRANSITION AREA OTHER-SCH-G_FL=BUILDING STORY 4_SCH=G SPACE FUNCTION CORRIDOR/TRANSITION AREA OTHER-SCH-G LIGHTS,NECB-G-LIGHTING,WILD_ST=CORRIDOR/TRANSITION AREA OTHER-SCH-G_FL=BUILDING STORY 4_SCH=G,77.66,0.8,205.018,2.640,263.904,0.000,0.500,0.200,0.300,1.000,General,0.000,184.516
 Lights Internal Gains Nominal, WILD_ST=CORRIDOR/TRANSITION AREA OTHER-SCH-G_FL=BUILDING STORY 5_SCH=G SPACE FUNCTION CORRIDOR/TRANSITION AREA OTHER-SCH-G LIGHTS,NECB-G-LIGHTING,WILD_ST=CORRIDOR/TRANSITION AREA OTHER-SCH-G_FL=BUILDING STORY 5_SCH=G,77.66,0.8,205.018,2.640,263.904,0.000,0.500,0.200,0.300,1.000,General,0.000,184.516
 Lights Internal Gains Nominal, WILD_ST=CORRIDOR/TRANSITION AREA OTHER-SCH-G_FL=BUILDING STORY 6_SCH=G SPACE FUNCTION CORRIDOR/TRANSITION AREA OTHER-SCH-G LIGHTS,NECB-G-LIGHTING,WILD_ST=CORRIDOR/TRANSITION AREA OTHER-SCH-G_FL=BUILDING STORY 6_SCH=G,77.66,0.8,205.018,2.640,263.904,0.000,0.500,0.200,0.300,1.000,General,0.000,184.516
 Lights Internal Gains Nominal, WILD_ST=CORRIDOR/TRANSITION AREA OTHER-SCH-G_FL=BUILDING STORY 7_SCH=G SPACE FUNCTION CORRIDOR/TRANSITION AREA OTHER-SCH-G LIGHTS,NECB-G-LIGHTING,WILD_ST=CORRIDOR/TRANSITION AREA OTHER-SCH-G_FL=BUILDING STORY 7_SCH=G,77.66,0.8,205.018,2.640,263.904,0.000,0.500,0.200,0.300,1.000,General,0.000,184.516
 Lights Internal Gains Nominal, WILD_ST=CORRIDOR/TRANSITION AREA OTHER-SCH-G_FL=BUILDING STORY 8_SCH=G SPACE FUNCTION CORRIDOR/TRANSITION AREA OTHER-SCH-G LIGHTS,NECB-G-LIGHTING,WILD_ST=CORRIDOR/TRANSITION AREA OTHER-SCH-G_FL=BUILDING STORY 8_SCH=G,77.66,0.8,205.018,2.640,263.904,0.000,0.500,0.200,0.300,1.000,General,0.000,184.516
 Lights Internal Gains Nominal, WILD_ST=CORRIDOR/TRANSITION AREA OTHER-SCH-G_FL=BUILDING STORY 9_SCH=G SPACE FUNCTION CORRIDOR/TRANSITION AREA OTHER-SCH-G LIGHTS,NECB-G-LIGHTING,WILD_ST=CORRIDOR/TRANSITION AREA OTHER-SCH-G_FL=BUILDING STORY 9_SCH=G,77.66,0.8,205.018,2.640,263.904,0.000,0.500,0.200,0.300,1.000,General,0.000,184.516
 Lights Internal Gains Nominal, DU_BT=SPACE FUNCTION_ST=DWELLING UNITS GENERAL_FL=BUILDING STORY 10_SCHG SPACE FUNCTION DWELLING UNITS GENERAL LIGHTS,NECB-G-LIGHTING,DU_BT=SPACE FUNCTION_ST=DWELLING UNITS GENERAL_FL=BUILDING STORY 10_SCHG,88.25,3.5,264.746,3.000,74.973,0.000,0.500,0.200,0.300,1.000,General,0.000,238.271
 Lights Internal Gains Nominal, DU_BT=SPACE FUNCTION_ST=DWELLING UNITS GENERAL_FL=BUILDING STORY 10_SCHG 1 SPACE FUNCTION DWELLING UNITS GENERAL LIGHTS,NECB-G-LIGHTING,DU_BT=SPACE FUNCTION_ST=DWELLING UNITS GENERAL_FL=BUILDING STORY 10_SCHG 1,88.25,3.5,264.746,3.000,74.973,0.000,0.500,0.200,0.300,1.000,General,0.000,238.271
 Lights Internal Gains Nominal, DU_BT=SPACE FUNCTION_ST=DWELLING UNITS GENERAL_FL=BUILDING STORY 10_SCHG 2 SPACE FUNCTION DWELLING UNITS GENERAL LIGHTS,NECB-G-LIGHTING,DU_BT=SPACE FUNCTION_ST=DWELLING UNITS GENERAL_FL=BUILDING STORY 10_SCHG 2,88.25,3.5,264.746,3.000,74.973,0.000,0.500,0.200,0.300,1.000,General,0.000,238.271
 Lights Internal Gains Nominal, DU_BT=SPACE FUNCTION_ST=DWELLING UNITS GENERAL_FL=BUILDING STORY 10_SCHG 3 SPACE FUNCTION DWELLING UNITS GENERAL LIGHTS,NECB-G-LIGHTING,DU_BT=SPACE FUNCTION_ST=DWELLING UNITS GENERAL_FL=BUILDING STORY 10_SCHG 3,88.25,3.5,264.746,3.000,74.973,0.000,0.500,0.200,0.300,1.000,General,0.000,238.271
 Lights Internal Gains Nominal, DU_BT=SPACE FUNCTION_ST=DWELLING UNITS GENERAL_FL=BUILDING STORY 10_SCHG 4 SPACE FUNCTION DWELLING UNITS GENERAL LIGHTS,NECB-G-LIGHTING,DU_BT=SPACE FUNCTION_ST=DWELLING UNITS GENERAL_FL=BUILDING STORY 10_SCHG 4,88.25,3.5,264.746,3.000,74.973,0.000,0.500,0.200,0.300,1.000,General,0.000,238.271
 Lights Internal Gains Nominal, DU_BT=SPACE FUNCTION_ST=DWELLING UNITS GENERAL_FL=BUILDING STORY 10_SCHG 5 SPACE FUNCTION DWELLING UNITS GENERAL LIGHTS,NECB-G-LIGHTING,DU_BT=SPACE FUNCTION_ST=DWELLING UNITS GENERAL_FL=BUILDING STORY 10_SCHG 5,88.25,3.5,264.746,3.000,74.973,0.000,0.500,0.200,0.300,1.000,General,0.000,238.271
 Lights Internal Gains Nominal, DU_BT=SPACE FUNCTION_ST=DWELLING UNITS GENERAL_FL=BUILDING STORY 10_SCHG 6 SPACE FUNCTION DWELLING UNITS GENERAL LIGHTS,NECB-G-LIGHTING,DU_BT=SPACE FUNCTION_ST=DWELLING UNITS GENERAL_FL=BUILDING STORY 10_SCHG 6,88.25,3.5,264.746,3.000,74.973,0.000,0.500,0.200,0.300,1.000,General,0.000,238.271
[...]
! <Environment:Special Days>, Special Day Name, Special Day Type, Source, Start Date, Duration {#days}
! <Environment:Daylight Saving>, Daylight Saving Indicator, Source, Start Date, End Date
! <Environment:WarmupDays>, NumberofWarmupDays
Environment,RUN PERIOD 1,WeatherFileRunPeriod,01/01,12/31,Sunday,365,Use RunPeriod Specified Day,No,No,No,Yes,Yes
Environment:Daylight Saving,No,RunPeriod Object
Environment:WarmupDays,  7
! <Tabular Report>,Style,Unit Conversion
Tabular Report,HTML,None
! <Warmup Convergence Information>,Zone Name,Environment Type/Name,Average Warmup Temperature Difference {deltaC},Std Dev Warmup Temperature Difference {deltaC},Max Temperature Pass/Fail Convergence,Min Temperature Pass/Fail Convergence,Average Warmup Load Difference {W},Std Dev Warmup Load Difference {W},Heating Load Pass/Fail Convergence,Cooling Load Pass/Fail Convergence
 Warmup Convergence Information,ALL_ST=OFFICE ENCLOSED <= 25 M2_FL=BUILDING STORY 1_SCH=A,RunPeriod: RUN PERIOD 1,7.3929694479E-002,9.7877205451E-002,Pass,Pass,4.8487895756E-002,0.1300166775,Pass,Pass
 Warmup Convergence Information,DU_BT=SPACE FUNCTION_ST=DWELLING UNITS GENERAL_FL=BUILDING STORY 10_SCHG,RunPeriod: RUN PERIOD 1,0.3039748875,0.5347759550,Pass,Pass,15.0365983868,49.7171290891,Pass,Pass
 Warmup Convergence Information,DU_BT=SPACE FUNCTION_ST=DWELLING UNITS GENERAL_FL=BUILDING STORY 10_SCHG 1,RunPeriod: RUN PERIOD 1,0.3327934911,0.6380830665,Pass,Pass,68.2423603600,256.8266079678,Pass,Pass
 Warmup Convergence Information,DU_BT=SPACE FUNCTION_ST=DWELLING UNITS GENERAL_FL=BUILDING STORY 10_SCHG 2,RunPeriod: RUN PERIOD 1,0.3217509708,0.5655647871,Pass,Pass,16.8068836907,55.6504337601,Pass,Pass
 Warmup Convergence Information,DU_BT=SPACE FUNCTION_ST=DWELLING UNITS GENERAL_FL=BUILDING STORY 10_SCHG 3,RunPeriod: RUN PERIOD 1,0.3040998245,0.5347323005,Pass,Pass,15.1855317823,50.1059016325,Pass,Pass
 Warmup Convergence Information,DU_BT=SPACE FUNCTION_ST=DWELLING UNITS GENERAL_FL=BUILDING STORY 10_SCHG 4,RunPeriod: RUN PERIOD 1,0.3326551010,0.6381252915,Pass,Pass,66.6391146124,249.5010818022,Pass,Pass
 Warmup Convergence Information,DU_BT=SPACE FUNCTION_ST=DWELLING UNITS GENERAL_FL=BUILDING STORY 10_SCHG 5,RunPeriod: RUN PERIOD 1,0.3325706504,0.6276338417,Pass,Pass,30.7045068809,101.1933296722,Pass,Pass
 Warmup Convergence Information,DU_BT=SPACE FUNCTION_ST=DWELLING UNITS GENERAL_FL=BUILDING STORY 10_SCHG 6,RunPeriod: RUN PERIOD 1,0.3216646560,0.5655958710,Pass,Pass,16.6880306513,55.3329005275,Pass,Pass
 Warmup Convergence Information,DU_BT=SPACE FUNCTION_ST=DWELLING UNITS GENERAL_FL=BUILDING STORY 10_SCHG 7,RunPeriod: RUN PERIOD 1,0.3324511578,0.6276625856,Pass,Pass,30.4707339830,100.4418712863,Pass,Pass
 Warmup Convergence Information,DU_BT=SPACE FUNCTION_ST=DWELLING UNITS GENERAL_FL=BUILDING STORY 1_SCHG,RunPeriod: RUN PERIOD 1,0.1836027054,0.4033966224,Pass,Pass,10.1572763736,35.5556750766,Pass,Pass
 Warmup Convergence Information,DU_BT=SPACE FUNCTION_ST=DWELLING UNITS GENERAL_FL=BUILDING STORY 1_SCHG 1,RunPeriod: RUN PERIOD 1,0.1664686455,0.3736273171,Pass,Pass,9.5211105159,32.5270094661,Pass,Pass
 Warmup Convergence Information,DU_BT=SPACE FUNCTION_ST=DWELLING UNITS GENERAL_FL=BUILDING STORY 1_SCHG 2,RunPeriod: RUN PERIOD 1,9.1718741396E-002,0.1896067422,Pass,Pass,17.7306187646,46.6322690967,Pass,Pass
 Warmup Convergence Information,DU_BT=SPACE FUNCTION_ST=DWELLING UNITS GENERAL_FL=BUILDING STORY 1_SCHG 3,RunPeriod: RUN PERIOD 1,9.2659479088E-002,0.1349806345,Pass,Pass,10.3517513120,29.3971360958,Pass,Pass
 Warmup Convergence Information,DU_BT=SPACE FUNCTION_ST=DWELLING UNITS GENERAL_FL=BUILDING STORY 1_SCHG 4,RunPeriod: RUN PERIOD 1,0.1835664243,0.4034864074,Pass,Pass,10.2382881868,35.7451651181,Pass,Pass
 Warmup Convergence Information,DU_BT=SPACE FUNCTION_ST=DWELLING UNITS GENERAL_FL=BUILDING STORY 1_SCHG 5,RunPeriod: RUN PERIOD 1,9.1665628278E-002,0.1896394392,Pass,Pass,17.7118790586,46.5851308796,Pass,Pass
 Warmup Convergence Information,DU_BT=SPACE FUNCTION_ST=DWELLING UNITS GENERAL_FL=BUILDING STORY 1_SCHG 6,RunPeriod: RUN PERIOD 1,9.4068205829E-002,0.1891971410,Pass,Pass,14.4299475628,39.7574821469,Pass,Pass
 Warmup Convergence Information,DU_BT=SPACE FUNCTION_ST=DWELLING UNITS GENERAL_FL=BUILDING STORY 2_SCHG,RunPeriod: RUN PERIOD 1,7.8027449257E-002,0.1457429400,Pass,Pass,15.1022811023,40.0568996743,Pass,Pass
 Warmup Convergence Information,DU_BT=SPACE FUNCTION_ST=DWELLING UNITS GENERAL_FL=BUILDING STORY 2_SCHG 1,RunPeriod: RUN PERIOD 1,8.3492993955E-002,0.1094107179,Pass,Pass,8.5425921710,23.0487812225,Pass,Pass
 Warmup Convergence Information,DU_BT=SPACE FUNCTION_ST=DWELLING UNITS GENERAL_FL=BUILDING STORY 2_SCHG 2,RunPeriod: RUN PERIOD 1,0.1638906137,0.3731567259,Pass,Pass,9.9442052464,35.8434577952,Pass,Pass
 Warmup Convergence Information,DU_BT=SPACE FUNCTION_ST=DWELLING UNITS GENERAL_FL=BUILDING STORY 2_SCHG 3,RunPeriod: RUN PERIOD 1,8.1013284193E-002,9.3715909572E-002,Pass,Pass,3.7022621771,6.9173861348,Pass,Pass
 Warmup Convergence Information,DU_BT=SPACE FUNCTION_ST=DWELLING UNITS GENERAL_FL=BUILDING STORY 2_SCHG 4,RunPeriod: RUN PERIOD 1,0.1639385220,0.3729923407,Pass,Pass,9.8745160929,35.6777565680,Pass,Pass
 Warmup Convergence Information,DU_BT=SPACE FUNCTION_ST=DWELLING UNITS GENERAL_FL=BUILDING STORY 2_SCHG 5,RunPeriod: RUN PERIOD 1,7.8064086630E-002,0.1457461572,Pass,Pass,15.0982116953,40.0637425589,Pass,Pass
 Warmup Convergence Information,DU_BT=SPACE FUNCTION_ST=DWELLING UNITS GENERAL_FL=BUILDING STORY 2_SCHG 6,RunPeriod: RUN PERIOD 1,0.1466914475,0.3348446371,Pass,Pass,9.1336260057,31.7706062673,Pass,Pass
 Warmup Convergence Information,DU_BT=SPACE FUNCTION_ST=DWELLING UNITS GENERAL_FL=BUILDING STORY 2_SCHG 7,RunPeriod: RUN PERIOD 1,0.1937907585,0.4277143950,Pass,Pass,14.2550322399,51.7504355479,Pass,Pass
 Warmup Convergence Information,DU_BT=SPACE FUNCTION_ST=DWELLING UNITS GENERAL_FL=BUILDING STORY 3_SCHG,RunPeriod: RUN PERIOD 1,0.1432945917,0.3261782167,Pass,Pass,9.0013155962,31.0811082685,Pass,Pass
 Warmup Convergence Information,DU_BT=SPACE FUNCTION_ST=DWELLING UNITS GENERAL_FL=BUILDING STORY 3_SCHG 1,RunPeriod: RUN PERIOD 1,8.0093980856E-002,9.0050454569E-002,Pass,Pass,4.5796519667,10.4411299982,Pass,Pass
 Warmup Convergence Information,DU_BT=SPACE FUNCTION_ST=DWELLING UNITS GENERAL_FL=BUILDING STORY 3_SCHG 2,RunPeriod: RUN PERIOD 1,7.9417472767E-002,8.8115449467E-002,Pass,Pass,3.3148542813,5.5033624313,Pass,Pass
 Warmup Convergence Information,DU_BT=SPACE FUNCTION_ST=DWELLING UNITS GENERAL_FL=BUILDING STORY 3_SCHG 3,RunPeriod: RUN PERIOD 1,0.1530243999,0.3509027700,Pass,Pass,9.9248167525,35.1664225604,Pass,Pass
 Warmup Convergence Information,DU_BT=SPACE FUNCTION_ST=DWELLING UNITS GENERAL_FL=BUILDING STORY 3_SCHG 4,RunPeriod: RUN PERIOD 1,0.1605517301,0.3694908504,Pass,Pass,9.8330365655,35.2612941282,Pass,Pass
 Warmup Convergence Information,DU_BT=SPACE FUNCTION_ST=DWELLING UNITS GENERAL_FL=BUILDING STORY 3_SCHG 5,RunPeriod: RUN PERIOD 1,0.1605377258,0.3692500102,Pass,Pass,9.7811935589,35.1292460103,Pass,Pass
 Warmup Convergence Information,DU_BT=SPACE FUNCTION_ST=DWELLING UNITS GENERAL_FL=BUILDING STORY 3_SCHG 6,RunPeriod: RUN PERIOD 1,7.7037726137E-002,0.1348356723,Pass,Pass,13.7299790907,37.7659304250,Pass,Pass
 Warmup Convergence Information,DU_BT=SPACE FUNCTION_ST=DWELLING UNITS GENERAL_FL=BUILDING STORY 3_SCHG 7,RunPeriod: RUN PERIOD 1,7.7011533025E-002,0.1348471404,Pass,Pass,13.7137744981,37.7298012176,Pass,Pass
 Warmup Convergence Information,DU_BT=SPACE FUNCTION_ST=DWELLING UNITS GENERAL_FL=BUILDING STORY 4_SCHG,RunPeriod: RUN PERIOD 1,0.1443572035,0.3310477262,Pass,Pass,9.1030926927,31.6274166785,Pass,Pass
 Warmup Convergence Information,DU_BT=SPACE FUNCTION_ST=DWELLING UNITS GENERAL_FL=BUILDING STORY 4_SCHG 1,RunPeriod: RUN PERIOD 1,0.1597775768,0.3686651114,Pass,Pass,9.8134663187,35.0046028295,Pass,Pass
 Warmup Convergence Information,DU_BT=SPACE FUNCTION_ST=DWELLING UNITS GENERAL_FL=BUILDING STORY 4_SCHG 2,RunPeriod: RUN PERIOD 1,0.1424095584,0.3251185939,Pass,Pass,8.9093270805,30.7086012791,Pass,Pass
 Warmup Convergence Information,DU_BT=SPACE FUNCTION_ST=DWELLING UNITS GENERAL_FL=BUILDING STORY 4_SCHG 3,RunPeriod: RUN PERIOD 1,7.9158049780E-002,8.7467235896E-002,Pass,Pass,3.2150779615,4.9168451727,Pass,Pass
 Warmup Convergence Information,DU_BT=SPACE FUNCTION_ST=DWELLING UNITS GENERAL_FL=BUILDING STORY 4_SCHG 4,RunPeriod: RUN PERIOD 1,0.1596536091,0.3689828963,Pass,Pass,9.8132639585,35.0558510346,Pass,Pass
 Warmup Convergence Information,DU_BT=SPACE FUNCTION_ST=DWELLING UNITS GENERAL_FL=BUILDING STORY 4_SCHG 5,RunPeriod: RUN PERIOD 1,7.6878252079E-002,0.1323677737,Pass,Pass,13.3197654401,36.9175767673,Pass,Pass
 Warmup Convergence Information,DU_BT=SPACE FUNCTION_ST=DWELLING UNITS GENERAL_FL=BUILDING STORY 4_SCHG 6,RunPeriod: RUN PERIOD 1,7.9007389881E-002,8.7121718084E-002,Pass,Pass,3.5084420977,5.2051143988,Pass,Pass
 Warmup Convergence Information,DU_BT=SPACE FUNCTION_ST=DWELLING UNITS GENERAL_FL=BUILDING STORY 4_SCHG 7,RunPeriod: RUN PERIOD 1,7.6847742876E-002,0.1323469209,Pass,Pass,13.3203165673,36.9161646477,Pass,Pass
 Warmup Convergence Information,DU_BT=SPACE FUNCTION_ST=DWELLING UNITS GENERAL_FL=BUILDING STORY 5_SCHG,RunPeriod: RUN PERIOD 1,0.1425782325,0.3258678996,Pass,Pass,8.8781859908,30.6882410260,Pass,Pass
 Warmup Convergence Information,DU_BT=SPACE FUNCTION_ST=DWELLING UNITS GENERAL_FL=BUILDING STORY 5_SCHG 1,RunPeriod: RUN PERIOD 1,7.6849792803E-002,0.1324033402,Pass,Pass,13.2769387626,36.8303949739,Pass,Pass
 Warmup Convergence Information,DU_BT=SPACE FUNCTION_ST=DWELLING UNITS GENERAL_FL=BUILDING STORY 5_SCHG 2,RunPeriod: RUN PERIOD 1,0.1596069821,0.3692144996,Pass,Pass,9.7586743351,34.8752225246,Pass,Pass
 Warmup Convergence Information,DU_BT=SPACE FUNCTION_ST=DWELLING UNITS GENERAL_FL=BUILDING STORY 5_SCHG 3,RunPeriod: RUN PERIOD 1,7.6828860337E-002,0.1323745325,Pass,Pass,13.2754289810,36.8253368283,Pass,Pass
 Warmup Convergence Information,DU_BT=SPACE FUNCTION_ST=DWELLING UNITS GENERAL_FL=BUILDING STORY 5_SCHG 4,RunPeriod: RUN PERIOD 1,7.8998473191E-002,8.7031591237E-002,Pass,Pass,3.7923558170,5.9705062403,Pass,Pass
 Warmup Convergence Information,DU_BT=SPACE FUNCTION_ST=DWELLING UNITS GENERAL_FL=BUILDING STORY 5_SCHG 5,RunPeriod: RUN PERIOD 1,7.8919269134E-002,8.6958373776E-002,Pass,Pass,5.4012203735,12.4935876999,Pass,Pass
 Warmup Convergence Information,DU_BT=SPACE FUNCTION_ST=DWELLING UNITS GENERAL_FL=BUILDING STORY 5_SCHG 6,RunPeriod: RUN PERIOD 1,0.1594027518,0.3695391568,Pass,Pass,9.7882369938,34.9692716144,Pass,Pass
 Warmup Convergence Information,DU_BT=SPACE FUNCTION_ST=DWELLING UNITS GENERAL_FL=BUILDING STORY 5_SCHG 7,RunPeriod: RUN PERIOD 1,0.1422515106,0.3252621477,Pass,Pass,8.8961259842,30.6098998472,Pass,Pass
 Warmup Convergence Information,DU_BT=SPACE FUNCTION_ST=DWELLING UNITS GENERAL_FL=BUILDING STORY 6_SCHG,RunPeriod: RUN PERIOD 1,0.1599617617,0.3709910665,Pass,Pass,9.7918178147,34.9683197704,Pass,Pass
 Warmup Convergence Information,DU_BT=SPACE FUNCTION_ST=DWELLING UNITS GENERAL_FL=BUILDING STORY 6_SCHG 1,RunPeriod: RUN PERIOD 1,7.6882400229E-002,0.1338179706,Pass,Pass,13.4287379738,37.2142892815,Pass,Pass
 Warmup Convergence Information,DU_BT=SPACE FUNCTION_ST=DWELLING UNITS GENERAL_FL=BUILDING STORY 6_SCHG 2,RunPeriod: RUN PERIOD 1,0.1599509709,0.3706334175,Pass,Pass,9.7378203205,34.8299753094,Pass,Pass
 Warmup Convergence Information,DU_BT=SPACE FUNCTION_ST=DWELLING UNITS GENERAL_FL=BUILDING STORY 6_SCHG 3,RunPeriod: RUN PERIOD 1,7.6955023178E-002,0.1338010427,Pass,Pass,13.4404499692,37.2455361040,Pass,Pass
 Warmup Convergence Information,DU_BT=SPACE FUNCTION_ST=DWELLING UNITS GENERAL_FL=BUILDING STORY 6_SCHG 4,RunPeriod: RUN PERIOD 1,0.1427833850,0.3275143098,Pass,Pass,8.8427939045,30.4573120313,Pass,Pass
 Warmup Convergence Information,DU_BT=SPACE FUNCTION_ST=DWELLING UNITS GENERAL_FL=BUILDING STORY 6_SCHG 5,RunPeriod: RUN PERIOD 1,0.1427881622,0.3267692712,Pass,Pass,8.8936943414,30.5678172992,Pass,Pass
 Warmup Convergence Information,DU_BT=SPACE FUNCTION_ST=DWELLING UNITS GENERAL_FL=BUILDING STORY 6_SCHG 6,RunPeriod: RUN PERIOD 1,7.9086680679E-002,8.7305508060E-002,Pass,Pass,3.2144554367,4.8143023494,Pass,Pass
 Warmup Convergence Information,DU_BT=SPACE FUNCTION_ST=DWELLING UNITS GENERAL_FL=BUILDING STORY 6_SCHG 7,RunPeriod: RUN PERIOD 1,7.9089675768E-002,8.7345882029E-002,Pass,Pass,3.2092867370,4.8211437662,Pass,Pass
 Warmup Convergence Information,DU_BT=SPACE FUNCTION_ST=DWELLING UNITS GENERAL_FL=BUILDING STORY 7_SCHG,RunPeriod: RUN PERIOD 1,7.7094789952E-002,0.1393437059,Pass,Pass,14.1907368265,38.8627994931,Pass,Pass
 Warmup Convergence Information,DU_BT=SPACE FUNCTION_ST=DWELLING UNITS GENERAL_FL=BUILDING STORY 7_SCHG 1,RunPeriod: RUN PERIOD 1,0.1613646721,0.3747835045,Pass,Pass,9.7947586429,34.9216208196,Pass,Pass
 Warmup Convergence Information,DU_BT=SPACE FUNCTION_ST=DWELLING UNITS GENERAL_FL=BUILDING STORY 7_SCHG 2,RunPeriod: RUN PERIOD 1,7.9545621909E-002,8.9122049449E-002,Pass,Pass,3.3606988852,5.8053805532,Pass,Pass
 Warmup Convergence Information,DU_BT=SPACE FUNCTION_ST=DWELLING UNITS GENERAL_FL=BUILDING STORY 7_SCHG 3,RunPeriod: RUN PERIOD 1,0.1612760637,0.3744886596,Pass,Pass,9.6979837027,34.7174681683,Pass,Pass
 Warmup Convergence Information,DU_BT=SPACE FUNCTION_ST=DWELLING UNITS GENERAL_FL=BUILDING STORY 7_SCHG 4,RunPeriod: RUN PERIOD 1,0.1443939655,0.3317079576,Pass,Pass,9.3661131323,32.6625200622,Pass,Pass
 Warmup Convergence Information,DU_BT=SPACE FUNCTION_ST=DWELLING UNITS GENERAL_FL=BUILDING STORY 7_SCHG 5,RunPeriod: RUN PERIOD 1,0.1443449626,0.3323580425,Pass,Pass,9.3013590975,32.5233884749,Pass,Pass
 Warmup Convergence Information,DU_BT=SPACE FUNCTION_ST=DWELLING UNITS GENERAL_FL=BUILDING STORY 7_SCHG 6,RunPeriod: RUN PERIOD 1,7.7054547485E-002,0.1393855813,Pass,Pass,14.1944951311,38.8613139342,Pass,Pass
 Warmup Convergence Information,DU_BT=SPACE FUNCTION_ST=DWELLING UNITS GENERAL_FL=BUILDING STORY 7_SCHG 7,RunPeriod: RUN PERIOD 1,7.9509986863E-002,8.9146109016E-002,Pass,Pass,3.3626778570,5.8086551470,Pass,Pass
 Warmup Convergence Information,DU_BT=SPACE FUNCTION_ST=DWELLING UNITS GENERAL_FL=BUILDING STORY 8_SCHG,RunPeriod: RUN PERIOD 1,8.0230715071E-002,0.1028887041,Pass,Pass,8.5504521467,22.0332739095,Pass,Pass
 Warmup Convergence Information,DU_BT=SPACE FUNCTION_ST=DWELLING UNITS GENERAL_FL=BUILDING STORY 8_SCHG 1,RunPeriod: RUN PERIOD 1,0.1663801963,0.3874367247,Pass,Pass,10.6948598241,39.1630949530,Pass,Pass
 Warmup Convergence Information,DU_BT=SPACE FUNCTION_ST=DWELLING UNITS GENERAL_FL=BUILDING STORY 8_SCHG 2,RunPeriod: RUN PERIOD 1,8.0276057929E-002,0.1028361216,Pass,Pass,8.5470021003,22.0243799869,Pass,Pass
 Warmup Convergence Information,DU_BT=SPACE FUNCTION_ST=DWELLING UNITS GENERAL_FL=BUILDING STORY 8_SCHG 3,RunPeriod: RUN PERIOD 1,7.7941302721E-002,0.1585247936,Pass,Pass,16.8196910837,45.6948162855,Pass,Pass
 Warmup Convergence Information,DU_BT=SPACE FUNCTION_ST=DWELLING UNITS GENERAL_FL=BUILDING STORY 8_SCHG 4,RunPeriod: RUN PERIOD 1,0.1664192360,0.3871478624,Pass,Pass,10.6298467951,39.0442621732,Pass,Pass
 Warmup Convergence Information,DU_BT=SPACE FUNCTION_ST=DWELLING UNITS GENERAL_FL=BUILDING STORY 8_SCHG 5,RunPeriod: RUN PERIOD 1,0.1500002116,0.3488942364,Pass,Pass,10.3294132625,37.1761369970,Pass,Pass
 Warmup Convergence Information,DU_BT=SPACE FUNCTION_ST=DWELLING UNITS GENERAL_FL=BUILDING STORY 8_SCHG 6,RunPeriod: RUN PERIOD 1,0.1500828749,0.3483059237,Pass,Pass,10.4072275672,37.3434388218,Pass,Pass
 Warmup Convergence Information,DU_BT=SPACE FUNCTION_ST=DWELLING UNITS GENERAL_FL=BUILDING STORY 8_SCHG 7,RunPeriod: RUN PERIOD 1,7.7991437067E-002,0.1585087417,Pass,Pass,16.8198055359,45.6946967140,Pass,Pass
 Warmup Convergence Information,DU_BT=SPACE FUNCTION_ST=DWELLING UNITS GENERAL_FL=BUILDING STORY 9_SCHG,RunPeriod: RUN PERIOD 1,0.1066507900,0.2427789765,Pass,Pass,14.6850890770,53.7024174983,Pass,Pass
 Warmup Convergence Information,DU_BT=SPACE FUNCTION_ST=DWELLING UNITS GENERAL_FL=BUILDING STORY 9_SCHG 1,RunPeriod: RUN PERIOD 1,0.1919280321,0.4218282753,Pass,Pass,13.8930750429,53.7280867830,Pass,Pass
 Warmup Convergence Information,DU_BT=SPACE FUNCTION_ST=DWELLING UNITS GENERAL_FL=BUILDING STORY 9_SCHG 2,RunPeriod: RUN PERIOD 1,9.1074249017E-002,0.1950081153,Pass,Pass,17.4203940676,49.0924814985,Pass,Pass
 Warmup Convergence Information,DU_BT=SPACE FUNCTION_ST=DWELLING UNITS GENERAL_FL=BUILDING STORY 9_SCHG 3,RunPeriod: RUN PERIOD 1,0.1763900122,0.4067576789,Pass,Pass,12.1099021219,45.1032284649,Pass,Pass
 Warmup Convergence Information,DU_BT=SPACE FUNCTION_ST=DWELLING UNITS GENERAL_FL=BUILDING STORY 9_SCHG 4,RunPeriod: RUN PERIOD 1,0.1919788445,0.4219693330,Pass,Pass,13.9739014310,53.8477946349,Pass,Pass
 Warmup Convergence Information,DU_BT=SPACE FUNCTION_ST=DWELLING UNITS GENERAL_FL=BUILDING STORY 9_SCHG 5,RunPeriod: RUN PERIOD 1,9.1033063116E-002,0.1950134742,Pass,Pass,17.4034639133,49.0455429518,Pass,Pass
 Warmup Convergence Information,DU_BT=SPACE FUNCTION_ST=DWELLING UNITS GENERAL_FL=BUILDING STORY 9_SCHG 6,RunPeriod: RUN PERIOD 1,0.1066369681,0.2427722795,Pass,Pass,14.6939919141,53.7285762459,Pass,Pass
 Warmup Convergence Information,DU_BT=SPACE FUNCTION_ST=DWELLING UNITS GENERAL_FL=BUILDING STORY 9_SCHG 7,RunPeriod: RUN PERIOD 1,0.1766550857,0.4065962213,Pass,Pass,12.1192101138,45.0971712737,Pass,Pass
 Warmup Convergence Information,WILD_ST=CORRIDOR/TRANSITION AREA OTHER-SCH-G_FL=BUILDING STORY 10_SCH=G,RunPeriod: RUN PERIOD 1,0.3229382703,0.5586663843,Pass,Pass,1.0356273007,4.1116281889,Pass,Pass
 Warmup Convergence Information,WILD_ST=CORRIDOR/TRANSITION AREA OTHER-SCH-G_FL=BUILDING STORY 1_SCH=G,RunPeriod: RUN PERIOD 1,0.1370882844,0.3248969541,Pass,Pass,23.7488862222,94.9268248952,Pass,Pass
 Warmup Convergence Information,WILD_ST=CORRIDOR/TRANSITION AREA OTHER-SCH-G_FL=BUILDING STORY 2_SCH=G,RunPeriod: RUN PERIOD 1,0.1059414029,0.2532654266,Pass,Pass,24.7833136615,93.2098497723,Pass,Pass
 Warmup Convergence Information,WILD_ST=CORRIDOR/TRANSITION AREA OTHER-SCH-G_FL=BUILDING STORY 3_SCH=G,RunPeriod: RUN PERIOD 1,9.5255438519E-002,0.2362829794,Pass,Pass,26.4060148138,95.8826959748,Pass,Pass
 Warmup Convergence Information,WILD_ST=CORRIDOR/TRANSITION AREA OTHER-SCH-G_FL=BUILDING STORY 4_SCH=G,RunPeriod: RUN PERIOD 1,9.1618339374E-002,0.2307661636,Pass,Pass,26.9766324009,96.9508089655,Pass,Pass
 Warmup Convergence Information,WILD_ST=CORRIDOR/TRANSITION AREA OTHER-SCH-G_FL=BUILDING STORY 5_SCH=G,RunPeriod: RUN PERIOD 1,9.1069591108E-002,0.2295943636,Pass,Pass,27.3326654703,97.7214847751,Pass,Pass
 Warmup Convergence Information,WILD_ST=CORRIDOR/TRANSITION AREA OTHER-SCH-G_FL=BUILDING STORY 6_SCH=G,RunPeriod: RUN PERIOD 1,9.1325843503E-002,0.2306540638,Pass,Pass,27.1784208351,97.6570242943,Pass,Pass
 Warmup Convergence Information,WILD_ST=CORRIDOR/TRANSITION AREA OTHER-SCH-G_FL=BUILDING STORY 7_SCH=G,RunPeriod: RUN PERIOD 1,9.2938898344E-002,0.2352977395,Pass,Pass,27.0037063164,98.0779910450,Pass,Pass
 Warmup Convergence Information,WILD_ST=CORRIDOR/TRANSITION AREA OTHER-SCH-G_FL=BUILDING STORY 8_SCH=G,RunPeriod: RUN PERIOD 1,9.8700799052E-002,0.2513049030,Pass,Pass,26.3160278745,99.7665247048,Pass,Pass
 Warmup Convergence Information,WILD_ST=CORRIDOR/TRANSITION AREA OTHER-SCH-G_FL=BUILDING STORY 9_SCH=G,RunPeriod: RUN PERIOD 1,0.1276908185,0.3205059885,Pass,Pass,32.7956470110,129.9216832173,Pass,Pass
! <Program Control Information:Threads/Parallel Sims>, Threading Supported,Maximum Number of Threads, Env Set Threads (OMP_NUM_THREADS), EP Env Set Threads (EP_OMP_NUM_THREADS), IDF Set Threads, Number of Threads Used (Interior Radiant Exchange), Number Nominal Surfaces, Number Parallel Sims
Program Control:Threads/Parallel Sims, No,1, N/A, N/A, N/A, N/A, N/A, N/A
End of Data
