Program Version,EnergyPlus, Version 8.9.0-eba93e8e1b, YMD=2019.08.13 18:30
! <Version>, Version ID
 Version, 8.9
! <Timesteps per Hour>, #TimeSteps, Minutes per TimeStep {minutes}
 Timesteps per Hour,  4, 15
! <System Convergence Limits>, Minimum System TimeStep {minutes}, Max HVAC Iterations, Minimum Plant Iterations, Maximum Plant Iterations
 System Convergence Limits, 1, 20, 2, 8
! <Simulation Control>, Do Zone Sizing, Do System Sizing, Do Plant Sizing, Do Design Days, Do Weather Simulation, Do HVAC Sizing Simulation
 Simulation Control, Yes, Yes, Yes, No, Yes, No
! <Output Reporting Tolerances>, Tolerance for Time Heating Setpoint Not Met, Tolerance for Zone Cooling Setpoint Not Met Time
 Output Reporting Tolerances, 1.000, 1.000, 
! <Site:GroundTemperature:BuildingSurface>,Jan{C},Feb{C},Mar{C},Apr{C},May{C},Jun{C},Jul{C},Aug{C},Sep{C},Oct{C},Nov{C},Dec{C}
 Site:GroundTemperature:BuildingSurface,  19.53,  19.50,  19.54,  19.60,  20.00,  21.64,  22.23,  22.38,  21.45,  20.12,  19.80,  19.63
! <Site:GroundTemperature:FCfactorMethod>,Jan{C},Feb{C},Mar{C},Apr{C},May{C},Jun{C},Jul{C},Aug{C},Sep{C},Oct{C},Nov{C},Dec{C}
 Site:GroundTemperature:FCfactorMethod,  -5.25,  -6.52,  -4.28,  -0.76,   8.43,  15.52,  20.30,  21.76,  19.28,  13.77,   6.41,  -0.41
! <Site:GroundTemperature:Shallow>,Jan{C},Feb{C},Mar{C},Apr{C},May{C},Jun{C},Jul{C},Aug{C},Sep{C},Oct{C},Nov{C},Dec{C}
 Site:GroundTemperature:Shallow,  13.00,  13.00,  13.00,  13.00,  13.00,  13.00,  13.00,  13.00,  13.00,  13.00,  13.00,  13.00
! <Site:GroundTemperature:Deep>,Jan{C},Feb{C},Mar{C},Apr{C},May{C},Jun{C},Jul{C},Aug{C},Sep{C},Oct{C},Nov{C},Dec{C}
 Site:GroundTemperature:Deep,  16.00,  16.00,  16.00,  16.00,  16.00,  16.00,  16.00,  16.00,  16.00,  16.00,  16.00,  16.00
! <Site:GroundReflectance>,Jan{dimensionless},Feb{dimensionless},Mar{dimensionless},Apr{dimensionless},May{dimensionless},Jun{dimensionless},Jul{dimensionless},Aug{dimensionless},Sep{dimensionless},Oct{dimensionless},Nov{dimensionless},Dec{dimensionless}
 Site:GroundReflectance,  0.20,  0.20,  0.20,  0.20,  0.20,  0.20,  0.20,  0.20,  0.20,  0.20,  0.20,  0.20
! <Site:GroundReflectance:SnowModifier>, Normal, Daylighting {dimensionless}
 Site:GroundReflectance:SnowModifier,   1.000,   1.000
! <Site:GroundReflectance:Snow>,Jan{dimensionless},Feb{dimensionless},Mar{dimensionless},Apr{dimensionless},May{dimensionless},Jun{dimensionless},Jul{dimensionless},Aug{dimensionless},Sep{dimensionless},Oct{dimensionless},Nov{dimensionless},Dec{dimensionless}
 Site:GroundReflectance:Snow,  0.20,  0.20,  0.20,  0.20,  0.20,  0.20,  0.20,  0.20,  0.20,  0.20,  0.20,  0.20
! <Site:GroundReflectance:Snow:Daylighting>,Jan{dimensionless},Feb{dimensionless},Mar{dimensionless},Apr{dimensionless},May{dimensionless},Jun{dimensionless},Jul{dimensionless},Aug{dimensionless},Sep{dimensionless},Oct{dimensionless},Nov{dimensionless},Dec{dimensionless}
 Site:GroundReflectance:Snow:Daylighting,  0.20,  0.20,  0.20,  0.20,  0.20,  0.20,  0.20,  0.20,  0.20,  0.20,  0.20,  0.20
! <Environment:Weather Station>,Wind Sensor Height Above Ground {m},Wind Speed Profile Exponent {},Wind Speed Profile Boundary Layer Thickness {m},Air Temperature Sensor Height Above Ground {m},Wind Speed Modifier Coefficient-Internal,Temperature Modifier Coefficient-Internal
Environment:Weather Station,10.000,0.140,270.000,1.500,1.586,9.750E-003
! <Site:Location>, Location Name, Latitude {N+/S- Deg}, Longitude {E+/W- Deg},  Time Zone Number {GMT+/-}, Elevation {m},  Standard Pressure at Elevation {Pa}, Standard RhoAir at Elevation
Site:Location,Montreal-Trudeau Intl AP QC CAN CWEC2016 WMO#=716270,45.47,-73.74,-5.00,36.00,100893,1.1992
! <Building Information>, Building Name,North Axis {deg},Terrain,  Loads Convergence Tolerance Value,Temperature Convergence Tolerance Value,  Solar Distribution,Maximum Number of Warmup Days,Minimum Number of Warmup Days
 Building Information,SecondarySchool-CAN_QC_Montreal-Trudeau.Intl.AP.716270_CWEC2016.epw created: 2019-08-07 23:07:36 +0000,0.000,City,4.00000E-002,0.20000,FullInteriorAndExterior,25,6
! <Inside Convection Algorithm>, Algorithm {Simple | TARP | CeilingDiffuser | AdaptiveConvectionAlgorithm}
Inside Convection Algorithm,TARP
! <Outside Convection Algorithm>, Algorithm {SimpleCombined | TARP | MoWitt | DOE-2 | AdaptiveConvectionAlgorithm}
Outside Convection Algorithm,TARP
! <Sky Radiance Distribution>, Value {Anisotropic}
Sky Radiance Distribution,Anisotropic
! <Zone Air Solution Algorithm>, Value {ThirdOrderBackwardDifference | AnalyticalSolution | EulerMethod}
 Zone Air Solution Algorithm, AnalyticalSolution
! <Zone Air Carbon Dioxide Balance Simulation>, Simulation {Yes/No}, Carbon Dioxide Concentration
 Zone Air Carbon Dioxide Balance Simulation, No,N/A
! <Zone Air Generic Contaminant Balance Simulation>, Simulation {Yes/No}, Generic Contaminant Concentration
 Zone Air Generic Contaminant Balance Simulation, No,N/A
! <Zone Air Mass Flow Balance Simulation>, Enforce Mass Balance, Adjust Zone Mixing, Adjust Zone Infiltration {AddInfiltration | AdjustInfiltration | None}, Infiltration Zones {MixingSourceZonesOnly | AllZones}
 Zone Air Mass Flow Balance Simulation, No,N/A,N/A,N/A
! <HVACSystemRootFindingAlgorithm>, Value {RegulaFalsi | Bisection | BisectionThenRegulaFalsi | RegulaFalsiThenBisection}
 HVACSystemRootFindingAlgorithm, RegulaFalsi
! <Environment:Site Atmospheric Variation>,Wind Speed Profile Exponent {},Wind Speed Profile Boundary Layer Thickness {m},Air Temperature Gradient Coefficient {K/m}
Environment:Site Atmospheric Variation,0.330,460.000,6.500000E-003
! <Surface Geometry>,Starting Corner,Vertex Input Direction,Coordinate System,Daylight Reference Point Coordinate System,Rectangular (Simple) Surface Coordinate System
 Surface Geometry,UpperLeftCorner,Counterclockwise,RelativeCoordinateSystem,RelativeCoordinateSystem,RelativeToZoneOrigin
! <Surface Heat Transfer Algorithm>, Value {CTF - ConductionTransferFunction | EMPD - MoisturePenetrationDepthConductionTransferFunction | CondFD - ConductionFiniteDifference | HAMT - CombinedHeatAndMoistureFiniteElement} - Description,Inside Surface Max Temperature Limit{C}, Surface Convection Coefficient Lower Limit {W/m2-K}, Surface Convection Coefficient Upper Limit {W/m2-K}
Surface Heat Transfer Algorithm, CTF - ConductionTransferFunction,200,0.10,1000.0
! <Shading Summary>, Number of Fixed Detached Shades, Number of Building Detached Shades, Number of Attached Shades
 Shading Summary,0,0,36
! <Zone Summary>, Number of Zones, Number of Zone Surfaces, Number of SubSurfaces
 Zone Summary,26,393,67
! <Zone Information>,Zone Name,North Axis {deg},Origin X-Coordinate {m},Origin Y-Coordinate {m},Origin Z-Coordinate {m},Centroid X-Coordinate {m},Centroid Y-Coordinate {m},Centroid Z-Coordinate {m},Type,Zone Multiplier,Zone List Multiplier,Minimum X {m},Maximum X {m},Minimum Y {m},Maximum Y {m},Minimum Z {m},Maximum Z {m},Ceiling Height {m},Volume {m3},Zone Inside Convection Algorithm {Simple-Detailed-CeilingDiffuser-TrombeWall},Zone Outside Convection Algorithm {Simple-Detailed-Tarp-MoWitt-DOE-2-BLAST}, Floor Area {m2},Exterior Gross Wall Area {m2},Exterior Net Wall Area {m2},Exterior Window Area {m2}, Number of Surfaces, Number of SubSurfaces, Number of Shading SubSurfaces,  Part of Total Building Area
 Zone Information, ALL_ST=AUDIENCE SEATING AREA PERMANENT - AUDITORIUM_FL=BUILDING STORY 1_SCH=C,0.0,79.00,75.00,0.00,98.00,88.00,4.00,1,1,1,79.00,117.00,75.00,101.00,0.00,8.00,8.00,7904.00,TARP,TARP,988.00,304.00,243.20,60.80,12,2,0,Yes
 Zone Information, ALL_ST=CLASSROOM/LECTURE HALL/TRAINING ROOM OTHER_FL=BUILDING STORY 1_SCH=D,0.0,0.00,0.00,0.00,5.50,44.83,2.00,1,1,1,0.00,11.00,0.00,90.00,0.00,4.00,4.00,1188.00,TARP,TARP,297.00,240.00,192.00,48.00,18,6,6,Yes
 Zone Information, ALL_ST=CLASSROOM/LECTURE HALL/TRAINING ROOM OTHER_FL=BUILDING STORY 1_SCH=D 1,0.0,11.00,14.00,0.00,37.50,58.83,2.00,1,1,1,11.00,64.00,14.00,104.00,0.00,4.00,4.00,5724.00,TARP,TARP,1431.00,636.00,508.80,127.20,18,3,0,Yes
 Zone Information, ALL_ST=CLASSROOM/LECTURE HALL/TRAINING ROOM OTHER_FL=BUILDING STORY 1_SCH=D 2,0.0,11.00,0.00,0.00,37.50,44.83,2.00,1,1,1,11.00,64.00,0.00,90.00,0.00,4.00,4.00,5724.00,TARP,TARP,1431.00,636.00,508.80,127.20,18,3,6,Yes
 Zone Information, ALL_ST=CLASSROOM/LECTURE HALL/TRAINING ROOM OTHER_FL=BUILDING STORY 1_SCH=D 3,0.0,0.00,14.00,0.00,5.50,58.83,2.00,1,1,1,0.00,11.00,14.00,104.00,0.00,4.00,4.00,1188.00,TARP,TARP,297.00,240.00,192.00,48.00,18,6,0,Yes
 Zone Information, ALL_ST=CLASSROOM/LECTURE HALL/TRAINING ROOM OTHER_FL=BUILDING STORY 2_SCH=D,0.0,0.00,14.00,4.00,5.50,58.83,6.00,1,1,1,0.00,11.00,14.00,104.00,4.00,8.00,4.00,1188.00,TARP,TARP,297.00,240.00,192.00,48.00,18,6,0,Yes
 Zone Information, ALL_ST=CLASSROOM/LECTURE HALL/TRAINING ROOM OTHER_FL=BUILDING STORY 2_SCH=D 1,0.0,11.00,0.00,4.00,37.50,44.83,6.00,1,1,1,11.00,64.00,0.00,90.00,4.00,8.00,4.00,5724.00,TARP,TARP,1431.00,636.00,508.80,127.20,18,3,6,Yes
 Zone Information, ALL_ST=CLASSROOM/LECTURE HALL/TRAINING ROOM OTHER_FL=BUILDING STORY 2_SCH=D 2,0.0,11.00,14.00,4.00,37.50,58.83,6.00,1,1,1,11.00,64.00,14.00,104.00,4.00,8.00,4.00,5724.00,TARP,TARP,1431.00,636.00,508.80,127.20,18,3,0,Yes
 Zone Information, ALL_ST=CLASSROOM/LECTURE HALL/TRAINING ROOM OTHER_FL=BUILDING STORY 2_SCH=D 3,0.0,0.00,0.00,4.00,5.50,44.83,6.00,1,1,1,0.00,11.00,0.00,90.00,4.00,8.00,4.00,1188.00,TARP,TARP,297.00,240.00,192.00,48.00,18,6,6,Yes
 Zone Information, ALL_ST=CONFERENCE/MEETING/MULTI-PURPOSE ROOM_FL=BUILDING STORY 1_SCH=C,0.0,117.00,75.00,0.00,129.00,88.00,2.00,1,1,1,117.00,141.00,75.00,101.00,0.00,4.00,4.00,2496.00,TARP,TARP,624.00,200.00,160.00,40.00,6,2,0,Yes
 Zone Information, ALL_ST=FOOD PREPARATION AREA_FL=BUILDING STORY 1_SCH=B,0.0,117.00,66.00,0.00,129.00,70.50,2.00,1,1,1,117.00,141.00,66.00,75.00,0.00,4.00,4.00,864.00,TARP,TARP,216.00,36.00,28.80,7.20,6,1,0,Yes
 Zone Information, ALL_ST=GYMNASIUM/FITNESS CENTRE PLAYING AREA_FL=BUILDING STORY 1_SCH=B,0.0,79.00,14.00,0.00,98.00,40.00,4.00,1,1,1,79.00,117.00,14.00,66.00,0.00,8.00,8.00,15808.00,TARP,TARP,1976.00,0.00,0.00,0.00,10,0,0,Yes
 Zone Information, ALL_ST=GYMNASIUM/FITNESS CENTRE PLAYING AREA_FL=BUILDING STORY 1_SCH=B 1,0.0,117.00,14.00,0.00,129.00,40.00,4.00,1,1,1,117.00,141.00,14.00,66.00,0.00,8.00,8.00,9984.00,TARP,TARP,1248.00,608.00,486.40,121.60,10,4,4,Yes
 Zone Information, ALL_ST=LIBRARY READING AREA_FL=BUILDING STORY 2_SCH=C,0.0,117.00,66.00,4.00,129.00,83.50,6.00,1,1,1,117.00,141.00,66.00,101.00,4.00,8.00,4.00,3360.00,TARP,TARP,840.00,236.00,188.80,47.20,8,2,0,Yes
 Zone Information, ALL_ST=LOBBY - OTHER_FL=BUILDING STORY 1_SCH=C,0.0,64.00,0.00,0.00,71.50,7.00,2.00,1,1,1,64.00,79.00,0.00,14.00,0.00,4.00,4.00,840.00,TARP,TARP,210.00,60.00,48.00,12.00,7,1,2,Yes
 Zone Information, ALL_ST=LOBBY - OTHER_FL=BUILDING STORY 2_SCH=C,0.0,64.00,0.00,4.00,71.50,7.00,6.00,1,1,1,64.00,79.00,0.00,14.00,4.00,8.00,4.00,840.00,TARP,TARP,210.00,60.00,48.00,12.00,7,1,2,Yes
 Zone Information, ALL_ST=OFFICE ENCLOSED <= 25 M2_FL=BUILDING STORY 1_SCH=A,0.0,79.00,0.00,0.00,98.00,7.00,2.00,1,1,1,79.00,117.00,0.00,14.00,0.00,4.00,4.00,2128.00,TARP,TARP,532.00,208.00,166.40,41.60,6,2,2,Yes
 Zone Information, ALL_ST=OFFICE ENCLOSED <= 25 M2_FL=BUILDING STORY 2_SCH=A,0.0,79.00,0.00,4.00,98.00,7.00,6.00,1,1,1,79.00,117.00,0.00,14.00,4.00,8.00,4.00,2128.00,TARP,TARP,532.00,208.00,166.40,41.60,6,2,2,Yes
 Zone Information, WET_ST=WASHROOM - OTHER-SCH-D_FL=BUILDING STORY 1_SCHD,0.0,64.00,90.00,0.00,71.50,97.00,2.00,1,1,1,64.00,79.00,90.00,104.00,0.00,4.00,4.00,840.00,TARP,TARP,210.00,72.00,57.60,14.40,8,2,0,Yes
 Zone Information, WET_ST=WASHROOM - OTHER-SCH-D_FL=BUILDING STORY 2_SCHD,0.0,64.00,90.00,4.00,71.50,97.00,6.00,1,1,1,64.00,79.00,90.00,104.00,4.00,8.00,4.00,840.00,TARP,TARP,210.00,72.00,57.60,14.40,8,2,0,Yes
 Zone Information, WILD_ST=CORRIDOR/TRANSITION AREA OTHER-SCH-D_FL=BUILDING STORY 1_SCH=D,0.0,64.00,14.00,0.00,71.50,52.00,2.00,1,1,1,64.00,79.00,14.00,90.00,0.00,4.00,4.00,4560.00,TARP,TARP,1140.00,140.00,112.00,28.00,14,2,0,Yes
 Zone Information, WILD_ST=CORRIDOR/TRANSITION AREA OTHER-SCH-D_FL=BUILDING STORY 1_SCH=D 1,0.0,0.00,9.00,0.00,32.00,51.83,2.00,1,1,1,0.00,64.00,9.00,95.00,0.00,4.00,4.00,3840.00,TARP,TARP,960.00,60.00,48.00,12.00,24,3,0,Yes
 Zone Information, WILD_ST=CORRIDOR/TRANSITION AREA OTHER-SCH-D_FL=BUILDING STORY 2_SCH=D,0.0,64.00,14.00,4.00,71.50,52.00,6.00,1,1,1,64.00,79.00,14.00,90.00,4.00,8.00,4.00,4560.00,TARP,TARP,1140.00,140.00,112.00,28.00,14,2,0,Yes
 Zone Information, WILD_ST=CORRIDOR/TRANSITION AREA OTHER-SCH-D_FL=BUILDING STORY 2_SCH=D 1,0.0,0.00,9.00,4.00,32.00,51.83,6.00,1,1,1,0.00,64.00,9.00,95.00,4.00,8.00,4.00,3840.00,TARP,TARP,960.00,60.00,48.00,12.00,24,3,0,Yes
 Zone Information, WILD_ST=ELECTRICAL/MECHANICAL ROOM-SCH-D_FL=BUILDING STORY 1_SCH=D,0.0,79.00,66.00,0.00,98.00,70.50,2.00,1,1,1,79.00,117.00,66.00,75.00,0.00,4.00,4.00,1368.00,TARP,TARP,342.00,0.00,0.00,0.00,6,0,0,Yes
 Zone Information, WILD_ST=ELECTRICAL/MECHANICAL ROOM-SCH-D_FL=BUILDING STORY 2_SCH=D,0.0,79.00,66.00,4.00,98.00,70.50,6.00,1,1,1,79.00,117.00,66.00,75.00,4.00,8.00,4.00,1368.00,TARP,TARP,342.00,0.00,0.00,0.00,6,0,0,Yes
! <Zone Internal Gains Nominal>,Zone Name, Floor Area {m2},# Occupants,Area per Occupant {m2/person},Occupant per Area {person/m2},Interior Lighting {W/m2},Electric Load {W/m2},Gas Load {W/m2},Other Load {W/m2},Hot Water Eq {W/m2},Steam Equipment {W/m2},Sum Loads per Area {W/m2},Outdoor Controlled Baseboard Heat
 Zone Internal Gains Nominal, ALL_ST=AUDIENCE SEATING AREA PERMANENT - AUDITORIUM_FL=BUILDING STORY 1_SCH=C,988.00,197.7,4.998,0.200,0.975,1.250,0.000,0.000,0.000,0.000,2.225,No
 Zone Internal Gains Nominal, ALL_ST=CLASSROOM/LECTURE HALL/TRAINING ROOM OTHER_FL=BUILDING STORY 1_SCH=D,297.00,39.6,7.497,0.133,3.800,2.501,0.000,0.000,0.000,0.000,6.301,No
 Zone Internal Gains Nominal, ALL_ST=CLASSROOM/LECTURE HALL/TRAINING ROOM OTHER_FL=BUILDING STORY 1_SCH=D 1,1431.00,190.9,7.497,0.133,3.800,2.501,0.000,0.000,0.000,0.000,6.301,No
 Zone Internal Gains Nominal, ALL_ST=CLASSROOM/LECTURE HALL/TRAINING ROOM OTHER_FL=BUILDING STORY 1_SCH=D 2,1431.00,190.9,7.497,0.133,3.800,2.501,0.000,0.000,0.000,0.000,6.301,No
 Zone Internal Gains Nominal, ALL_ST=CLASSROOM/LECTURE HALL/TRAINING ROOM OTHER_FL=BUILDING STORY 1_SCH=D 3,297.00,39.6,7.497,0.133,3.800,2.501,0.000,0.000,0.000,0.000,6.301,No
 Zone Internal Gains Nominal, ALL_ST=CLASSROOM/LECTURE HALL/TRAINING ROOM OTHER_FL=BUILDING STORY 2_SCH=D,297.00,39.6,7.497,0.133,3.800,2.501,0.000,0.000,0.000,0.000,6.301,No
 Zone Internal Gains Nominal, ALL_ST=CLASSROOM/LECTURE HALL/TRAINING ROOM OTHER_FL=BUILDING STORY 2_SCH=D 1,1431.00,190.9,7.497,0.133,3.800,2.501,0.000,0.000,0.000,0.000,6.301,No
 Zone Internal Gains Nominal, ALL_ST=CLASSROOM/LECTURE HALL/TRAINING ROOM OTHER_FL=BUILDING STORY 2_SCH=D 2,1431.00,190.9,7.497,0.133,3.800,2.501,0.000,0.000,0.000,0.000,6.301,No
 Zone Internal Gains Nominal, ALL_ST=CLASSROOM/LECTURE HALL/TRAINING ROOM OTHER_FL=BUILDING STORY 2_SCH=D 3,297.00,39.6,7.497,0.133,3.800,2.501,0.000,0.000,0.000,0.000,6.301,No
 Zone Internal Gains Nominal, ALL_ST=CONFERENCE/MEETING/MULTI-PURPOSE ROOM_FL=BUILDING STORY 1_SCH=C,624.00,124.8,4.998,0.200,5.250,0.500,0.000,0.000,0.000,0.000,5.750,No
 Zone Internal Gains Nominal, ALL_ST=FOOD PREPARATION AREA_FL=BUILDING STORY 1_SCH=B,216.00,10.8,19.993,5.002E-002,5.850,5.002,0.000,0.000,0.000,0.000,10.852,No
 Zone Internal Gains Nominal, ALL_ST=GYMNASIUM/FITNESS CENTRE PLAYING AREA_FL=BUILDING STORY 1_SCH=B,1976.00,395.3,4.998,0.200,4.600,0.750,0.000,0.000,0.000,0.000,5.350,No
 Zone Internal Gains Nominal, ALL_ST=GYMNASIUM/FITNESS CENTRE PLAYING AREA_FL=BUILDING STORY 1_SCH=B 1,1248.00,249.7,4.998,0.200,4.600,0.750,0.000,0.000,0.000,0.000,5.350,No
 Zone Internal Gains Nominal, ALL_ST=LIBRARY READING AREA_FL=BUILDING STORY 2_SCH=C,840.00,42.0,19.993,5.002E-002,5.150,0.500,0.000,0.000,0.000,0.000,5.650,No
 Zone Internal Gains Nominal, ALL_ST=LOBBY - OTHER_FL=BUILDING STORY 1_SCH=C,210.00,21.0,9.996,0.100,4.500,0.500,0.000,0.000,0.000,0.000,5.000,No
 Zone Internal Gains Nominal, ALL_ST=LOBBY - OTHER_FL=BUILDING STORY 2_SCH=C,210.00,21.0,9.996,0.100,4.500,0.500,0.000,0.000,0.000,0.000,5.000,No
 Zone Internal Gains Nominal, ALL_ST=OFFICE ENCLOSED <= 25 M2_FL=BUILDING STORY 1_SCH=A,532.00,26.6,19.993,5.002E-002,4.000,3.751,0.000,0.000,0.000,0.000,7.751,No
 Zone Internal Gains Nominal, ALL_ST=OFFICE ENCLOSED <= 25 M2_FL=BUILDING STORY 2_SCH=A,532.00,26.6,19.993,5.002E-002,4.000,3.751,0.000,0.000,0.000,0.000,7.751,No
 Zone Internal Gains Nominal, WET_ST=WASHROOM - OTHER-SCH-D_FL=BUILDING STORY 1_SCHD,210.00,7.0,29.989,3.335E-002,3.400,0.500,0.000,0.000,0.000,0.000,3.900,No
 Zone Internal Gains Nominal, WET_ST=WASHROOM - OTHER-SCH-D_FL=BUILDING STORY 2_SCHD,210.00,7.0,29.989,3.335E-002,3.400,0.500,0.000,0.000,0.000,0.000,3.900,No
 Zone Internal Gains Nominal, WILD_ST=CORRIDOR/TRANSITION AREA OTHER-SCH-D_FL=BUILDING STORY 1_SCH=D,1140.00,11.4,99.964,1.000E-002,2.200,0.000,0.000,0.000,0.000,0.000,2.200,No
 Zone Internal Gains Nominal, WILD_ST=CORRIDOR/TRANSITION AREA OTHER-SCH-D_FL=BUILDING STORY 1_SCH=D 1,960.00,9.6,99.964,1.000E-002,2.200,0.000,0.000,0.000,0.000,0.000,2.200,No
 Zone Internal Gains Nominal, WILD_ST=CORRIDOR/TRANSITION AREA OTHER-SCH-D_FL=BUILDING STORY 2_SCH=D,1140.00,11.4,99.964,1.000E-002,2.200,0.000,0.000,0.000,0.000,0.000,2.200,No
 Zone Internal Gains Nominal, WILD_ST=CORRIDOR/TRANSITION AREA OTHER-SCH-D_FL=BUILDING STORY 2_SCH=D 1,960.00,9.6,99.964,1.000E-002,2.200,0.000,0.000,0.000,0.000,0.000,2.200,No
 Zone Internal Gains Nominal, WILD_ST=ELECTRICAL/MECHANICAL ROOM-SCH-D_FL=BUILDING STORY 1_SCH=D,342.00,1.7,199.927,5.002E-003,2.300,0.500,0.000,0.000,0.000,0.000,2.800,No
 Zone Internal Gains Nominal, WILD_ST=ELECTRICAL/MECHANICAL ROOM-SCH-D_FL=BUILDING STORY 2_SCH=D,342.00,1.7,199.927,5.002E-003,2.300,0.500,0.000,0.000,0.000,0.000,2.800,No
! <People Internal Gains Nominal>,Name,Schedule Name,Zone Name,Zone Floor Area {m2},# Zone Occupants,Number of People {},People/Floor Area {person/m2},Floor Area per person {m2/person},Fraction Radiant,Fraction Convected,Sensible Fraction Calculation,Activity level,ASHRAE 55 Warnings,Carbon Dioxide Generation Rate,Nominal Minimum Number of People,Nominal Maximum Number of People
 People Internal Gains Nominal, ALL_ST=AUDIENCE SEATING AREA PERMANENT - AUDITORIUM_FL=BUILDING STORY 1_SCH=C SPACE FUNCTION AUDIENCE SEATING AREA PERMANENT - AUDITORIUM PEOPLE,NECB-C-OCCUPANCY,ALL_ST=AUDIENCE SEATING AREA PERMANENT - AUDITORIUM_FL=BUILDING STORY 1_SCH=C,988.00,197.7,197.7,0.200,4.998,0.300,0.700,AutoCalculate,NECB-ACTIVITY,No,3.8200E-008,0,178
 People Internal Gains Nominal, ALL_ST=CLASSROOM/LECTURE HALL/TRAINING ROOM OTHER_FL=BUILDING STORY 1_SCH=D SPACE FUNCTION CLASSROOM/LECTURE HALL/TRAINING ROOM OTHER PEOPLE,NECB-D-OCCUPANCY,ALL_ST=CLASSROOM/LECTURE HALL/TRAINING ROOM OTHER_FL=BUILDING STORY 1_SCH=D,297.00,39.6,39.6,0.133,7.497,0.300,0.700,AutoCalculate,NECB-ACTIVITY,No,3.8200E-008,0,36
 People Internal Gains Nominal, ALL_ST=CLASSROOM/LECTURE HALL/TRAINING ROOM OTHER_FL=BUILDING STORY 1_SCH=D 1 SPACE FUNCTION CLASSROOM/LECTURE HALL/TRAINING ROOM OTHER PEOPLE,NECB-D-OCCUPANCY,ALL_ST=CLASSROOM/LECTURE HALL/TRAINING ROOM OTHER_FL=BUILDING STORY 1_SCH=D 1,1431.00,190.9,190.9,0.133,7.497,0.300,0.700,AutoCalculate,NECB-ACTIVITY,No,3.8200E-008,0,172
 People Internal Gains Nominal, ALL_ST=CLASSROOM/LECTURE HALL/TRAINING ROOM OTHER_FL=BUILDING STORY 1_SCH=D 2 SPACE FUNCTION CLASSROOM/LECTURE HALL/TRAINING ROOM OTHER PEOPLE,NECB-D-OCCUPANCY,ALL_ST=CLASSROOM/LECTURE HALL/TRAINING ROOM OTHER_FL=BUILDING STORY 1_SCH=D 2,1431.00,190.9,190.9,0.133,7.497,0.300,0.700,AutoCalculate,NECB-ACTIVITY,No,3.8200E-008,0,172
 People Internal Gains Nominal, ALL_ST=CLASSROOM/LECTURE HALL/TRAINING ROOM OTHER_FL=BUILDING STORY 1_SCH=D 3 SPACE FUNCTION CLASSROOM/LECTURE HALL/TRAINING ROOM OTHER PEOPLE,NECB-D-OCCUPANCY,ALL_ST=CLASSROOM/LECTURE HALL/TRAINING ROOM OTHER_FL=BUILDING STORY 1_SCH=D 3,297.00,39.6,39.6,0.133,7.497,0.300,0.700,AutoCalculate,NECB-ACTIVITY,No,3.8200E-008,0,36
 People Internal Gains Nominal, ALL_ST=CLASSROOM/LECTURE HALL/TRAINING ROOM OTHER_FL=BUILDING STORY 2_SCH=D SPACE FUNCTION CLASSROOM/LECTURE HALL/TRAINING ROOM OTHER PEOPLE,NECB-D-OCCUPANCY,ALL_ST=CLASSROOM/LECTURE HALL/TRAINING ROOM OTHER_FL=BUILDING STORY 2_SCH=D,297.00,39.6,39.6,0.133,7.497,0.300,0.700,AutoCalculate,NECB-ACTIVITY,No,3.8200E-008,0,36
 People Internal Gains Nominal, ALL_ST=CLASSROOM/LECTURE HALL/TRAINING ROOM OTHER_FL=BUILDING STORY 2_SCH=D 1 SPACE FUNCTION CLASSROOM/LECTURE HALL/TRAINING ROOM OTHER PEOPLE,NECB-D-OCCUPANCY,ALL_ST=CLASSROOM/LECTURE HALL/TRAINING ROOM OTHER_FL=BUILDING STORY 2_SCH=D 1,1431.00,190.9,190.9,0.133,7.497,0.300,0.700,AutoCalculate,NECB-ACTIVITY,No,3.8200E-008,0,172
 People Internal Gains Nominal, ALL_ST=CLASSROOM/LECTURE HALL/TRAINING ROOM OTHER_FL=BUILDING STORY 2_SCH=D 2 SPACE FUNCTION CLASSROOM/LECTURE HALL/TRAINING ROOM OTHER PEOPLE,NECB-D-OCCUPANCY,ALL_ST=CLASSROOM/LECTURE HALL/TRAINING ROOM OTHER_FL=BUILDING STORY 2_SCH=D 2,1431.00,190.9,190.9,0.133,7.497,0.300,0.700,AutoCalculate,NECB-ACTIVITY,No,3.8200E-008,0,172
 People Internal Gains Nominal, ALL_ST=CLASSROOM/LECTURE HALL/TRAINING ROOM OTHER_FL=BUILDING STORY 2_SCH=D 3 SPACE FUNCTION CLASSROOM/LECTURE HALL/TRAINING ROOM OTHER PEOPLE,NECB-D-OCCUPANCY,ALL_ST=CLASSROOM/LECTURE HALL/TRAINING ROOM OTHER_FL=BUILDING STORY 2_SCH=D 3,297.00,39.6,39.6,0.133,7.497,0.300,0.700,AutoCalculate,NECB-ACTIVITY,No,3.8200E-008,0,36
 People Internal Gains Nominal, ALL_ST=CONFERENCE/MEETING/MULTI-PURPOSE ROOM_FL=BUILDING STORY 1_SCH=C SPACE FUNCTION CONFERENCE/MEETING/MULTI-PURPOSE ROOM PEOPLE,NECB-C-OCCUPANCY,ALL_ST=CONFERENCE/MEETING/MULTI-PURPOSE ROOM_FL=BUILDING STORY 1_SCH=C,624.00,124.8,124.8,0.200,4.998,0.300,0.700,AutoCalculate,NECB-ACTIVITY,No,3.8200E-008,0,112
 People Internal Gains Nominal, WILD_ST=CORRIDOR/TRANSITION AREA OTHER-SCH-D_FL=BUILDING STORY 1_SCH=D SPACE FUNCTION CORRIDOR/TRANSITION AREA OTHER-SCH-D PEOPLE,NECB-D-OCCUPANCY,WILD_ST=CORRIDOR/TRANSITION AREA OTHER-SCH-D_FL=BUILDING STORY 1_SCH=D,1140.00,11.4,11.4,1.000E-002,99.964,0.300,0.700,AutoCalculate,NECB-ACTIVITY,No,3.8200E-008,0,10
 People Internal Gains Nominal, WILD_ST=CORRIDOR/TRANSITION AREA OTHER-SCH-D_FL=BUILDING STORY 1_SCH=D 1 SPACE FUNCTION CORRIDOR/TRANSITION AREA OTHER-SCH-D PEOPLE,NECB-D-OCCUPANCY,WILD_ST=CORRIDOR/TRANSITION AREA OTHER-SCH-D_FL=BUILDING STORY 1_SCH=D 1,960.00,9.6,9.6,1.000E-002,99.964,0.300,0.700,AutoCalculate,NECB-ACTIVITY,No,3.8200E-008,0,9
 People Internal Gains Nominal, WILD_ST=CORRIDOR/TRANSITION AREA OTHER-SCH-D_FL=BUILDING STORY 2_SCH=D SPACE FUNCTION CORRIDOR/TRANSITION AREA OTHER-SCH-D PEOPLE,NECB-D-OCCUPANCY,WILD_ST=CORRIDOR/TRANSITION AREA OTHER-SCH-D_FL=BUILDING STORY 2_SCH=D,1140.00,11.4,11.4,1.000E-002,99.964,0.300,0.700,AutoCalculate,NECB-ACTIVITY,No,3.8200E-008,0,10
 People Internal Gains Nominal, WILD_ST=CORRIDOR/TRANSITION AREA OTHER-SCH-D_FL=BUILDING STORY 2_SCH=D 1 SPACE FUNCTION CORRIDOR/TRANSITION AREA OTHER-SCH-D PEOPLE,NECB-D-OCCUPANCY,WILD_ST=CORRIDOR/TRANSITION AREA OTHER-SCH-D_FL=BUILDING STORY 2_SCH=D 1,960.00,9.6,9.6,1.000E-002,99.964,0.300,0.700,AutoCalculate,NECB-ACTIVITY,No,3.8200E-008,0,9
 People Internal Gains Nominal, WILD_ST=ELECTRICAL/MECHANICAL ROOM-SCH-D_FL=BUILDING STORY 1_SCH=D SPACE FUNCTION ELECTRICAL/MECHANICAL ROOM-SCH-D PEOPLE,NECB-D-OCCUPANCY,WILD_ST=ELECTRICAL/MECHANICAL ROOM-SCH-D_FL=BUILDING STORY 1_SCH=D,342.00,1.7,1.7,5.002E-003,199.927,0.300,0.700,AutoCalculate,NECB-ACTIVITY,No,3.8200E-008,0,2
 People Internal Gains Nominal, WILD_ST=ELECTRICAL/MECHANICAL ROOM-SCH-D_FL=BUILDING STORY 2_SCH=D SPACE FUNCTION ELECTRICAL/MECHANICAL ROOM-SCH-D PEOPLE,NECB-D-OCCUPANCY,WILD_ST=ELECTRICAL/MECHANICAL ROOM-SCH-D_FL=BUILDING STORY 2_SCH=D,342.00,1.7,1.7,5.002E-003,199.927,0.300,0.700,AutoCalculate,NECB-ACTIVITY,No,3.8200E-008,0,2
 People Internal Gains Nominal, ALL_ST=FOOD PREPARATION AREA_FL=BUILDING STORY 1_SCH=B SPACE FUNCTION FOOD PREPARATION AREA PEOPLE,NECB-B-OCCUPANCY,ALL_ST=FOOD PREPARATION AREA_FL=BUILDING STORY 1_SCH=B,216.00,10.8,10.8,5.002E-002,19.993,0.300,0.700,AutoCalculate,NECB-ACTIVITY,No,3.8200E-008,0,10
 People Internal Gains Nominal, ALL_ST=GYMNASIUM/FITNESS CENTRE PLAYING AREA_FL=BUILDING STORY 1_SCH=B SPACE FUNCTION GYMNASIUM/FITNESS CENTRE PLAYING AREA PEOPLE,NECB-B-OCCUPANCY,ALL_ST=GYMNASIUM/FITNESS CENTRE PLAYING AREA_FL=BUILDING STORY 1_SCH=B,1976.00,395.3,395.3,0.200,4.998,0.300,0.700,AutoCalculate,NECB-ACTIVITY,No,3.8200E-008,0,356
 People Internal Gains Nominal, ALL_ST=GYMNASIUM/FITNESS CENTRE PLAYING AREA_FL=BUILDING STORY 1_SCH=B 1 SPACE FUNCTION GYMNASIUM/FITNESS CENTRE PLAYING AREA PEOPLE,NECB-B-OCCUPANCY,ALL_ST=GYMNASIUM/FITNESS CENTRE PLAYING AREA_FL=BUILDING STORY 1_SCH=B 1,1248.00,249.7,249.7,0.200,4.998,0.300,0.700,AutoCalculate,NECB-ACTIVITY,No,3.8200E-008,0,225
 People Internal Gains Nominal, ALL_ST=LIBRARY READING AREA_FL=BUILDING STORY 2_SCH=C SPACE FUNCTION LIBRARY READING AREA PEOPLE,NECB-C-OCCUPANCY,ALL_ST=LIBRARY READING AREA_FL=BUILDING STORY 2_SCH=C,840.00,42.0,42.0,5.002E-002,19.993,0.300,0.700,AutoCalculate,NECB-ACTIVITY,No,3.8200E-008,0,38
 People Internal Gains Nominal, ALL_ST=LOBBY - OTHER_FL=BUILDING STORY 1_SCH=C SPACE FUNCTION LOBBY - OTHER PEOPLE,NECB-C-OCCUPANCY,ALL_ST=LOBBY - OTHER_FL=BUILDING STORY 1_SCH=C,210.00,21.0,21.0,0.100,9.996,0.300,0.700,AutoCalculate,NECB-ACTIVITY,No,3.8200E-008,0,19
 People Internal Gains Nominal, ALL_ST=LOBBY - OTHER_FL=BUILDING STORY 2_SCH=C SPACE FUNCTION LOBBY - OTHER PEOPLE,NECB-C-OCCUPANCY,ALL_ST=LOBBY - OTHER_FL=BUILDING STORY 2_SCH=C,210.00,21.0,21.0,0.100,9.996,0.300,0.700,AutoCalculate,NECB-ACTIVITY,No,3.8200E-008,0,19
 People Internal Gains Nominal, ALL_ST=OFFICE ENCLOSED <= 25 M2_FL=BUILDING STORY 1_SCH=A SPACE FUNCTION OFFICE ENCLOSED <= 25 M2 PEOPLE,NECB-A-OCCUPANCY,ALL_ST=OFFICE ENCLOSED <= 25 M2_FL=BUILDING STORY 1_SCH=A,532.00,26.6,26.6,5.002E-002,19.993,0.300,0.700,AutoCalculate,NECB-ACTIVITY,No,3.8200E-008,0,24
 People Internal Gains Nominal, ALL_ST=OFFICE ENCLOSED <= 25 M2_FL=BUILDING STORY 2_SCH=A SPACE FUNCTION OFFICE ENCLOSED <= 25 M2 PEOPLE,NECB-A-OCCUPANCY,ALL_ST=OFFICE ENCLOSED <= 25 M2_FL=BUILDING STORY 2_SCH=A,532.00,26.6,26.6,5.002E-002,19.993,0.300,0.700,AutoCalculate,NECB-ACTIVITY,No,3.8200E-008,0,24
 People Internal Gains Nominal, WET_ST=WASHROOM - OTHER-SCH-D_FL=BUILDING STORY 1_SCHD SPACE FUNCTION WASHROOM - OTHER-SCH-D PEOPLE,NECB-D-OCCUPANCY,WET_ST=WASHROOM - OTHER-SCH-D_FL=BUILDING STORY 1_SCHD,210.00,7.0,7.0,3.335E-002,29.989,0.300,0.700,AutoCalculate,NECB-ACTIVITY,No,3.8200E-008,0,6
 People Internal Gains Nominal, WET_ST=WASHROOM - OTHER-SCH-D_FL=BUILDING STORY 2_SCHD SPACE FUNCTION WASHROOM - OTHER-SCH-D PEOPLE,NECB-D-OCCUPANCY,WET_ST=WASHROOM - OTHER-SCH-D_FL=BUILDING STORY 2_SCHD,210.00,7.0,7.0,3.335E-002,29.989,0.300,0.700,AutoCalculate,NECB-ACTIVITY,No,3.8200E-008,0,6
! <Lights Internal Gains Nominal>,Name,Schedule Name,Zone Name,Zone Floor Area {m2},# Zone Occupants,Lighting Level {W},Lights/Floor Area {W/m2},Lights per person {W/person},Fraction Return Air,Fraction Radiant,Fraction Short Wave,Fraction Convected,Fraction Replaceable,End-Use Category,Nominal Minimum Lighting Level {W},Nominal Maximum Lighting Level {W}
 Lights Internal Gains Nominal, ALL_ST=AUDIENCE SEATING AREA PERMANENT - AUDITORIUM_FL=BUILDING STORY 1_SCH=C SPACE FUNCTION AUDIENCE SEATING AREA PERMANENT - AUDITORIUM LIGHTS 85.0 PERCENT REDUCTION,NECB-C-LIGHTING,ALL_ST=AUDIENCE SEATING AREA PERMANENT - AUDITORIUM_FL=BUILDING STORY 1_SCH=C,988.00,197.7,963.300,0.975,4.873,0.000,0.500,0.200,0.300,1.000,General,48.165,866.970
 Lights Internal Gains Nominal, ALL_ST=CLASSROOM/LECTURE HALL/TRAINING ROOM OTHER_FL=BUILDING STORY 1_SCH=D SPACE FUNCTION CLASSROOM/LECTURE HALL/TRAINING ROOM OTHER LIGHTS 85.0 PERCENT REDUCTION,NECB-D-OCCUPANCY-NECB-D-LIGHTING-0.5-0.0-0.67-LIGHT RULESET,ALL_ST=CLASSROOM/LECTURE HALL/TRAINING ROOM OTHER_FL=BUILDING STORY 1_SCH=D,297.00,39.6,1128.600,3.800,28.490,0.000,0.500,0.200,0.300,1.000,General,37.526,1015.740
 Lights Internal Gains Nominal, ALL_ST=CLASSROOM/LECTURE HALL/TRAINING ROOM OTHER_FL=BUILDING STORY 1_SCH=D 1 SPACE FUNCTION CLASSROOM/LECTURE HALL/TRAINING ROOM OTHER LIGHTS 85.0 PERCENT REDUCTION,NECB-D-OCCUPANCY-NECB-D-LIGHTING-0.5-0.0-0.67-LIGHT RULESET,ALL_ST=CLASSROOM/LECTURE HALL/TRAINING ROOM OTHER_FL=BUILDING STORY 1_SCH=D 1,1431.00,190.9,5437.800,3.800,28.490,0.000,0.500,0.200,0.300,1.000,General,180.807,4894.020
 Lights Internal Gains Nominal, ALL_ST=CLASSROOM/LECTURE HALL/TRAINING ROOM OTHER_FL=BUILDING STORY 1_SCH=D 2 SPACE FUNCTION CLASSROOM/LECTURE HALL/TRAINING ROOM OTHER LIGHTS 85.0 PERCENT REDUCTION,NECB-D-OCCUPANCY-NECB-D-LIGHTING-0.5-0.0-0.67-LIGHT RULESET,ALL_ST=CLASSROOM/LECTURE HALL/TRAINING ROOM OTHER_FL=BUILDING STORY 1_SCH=D 2,1431.00,190.9,5437.800,3.800,28.490,0.000,0.500,0.200,0.300,1.000,General,180.807,4894.020
 Lights Internal Gains Nominal, ALL_ST=CLASSROOM/LECTURE HALL/TRAINING ROOM OTHER_FL=BUILDING STORY 1_SCH=D 3 SPACE FUNCTION CLASSROOM/LECTURE HALL/TRAINING ROOM OTHER LIGHTS 85.0 PERCENT REDUCTION,NECB-D-OCCUPANCY-NECB-D-LIGHTING-0.5-0.0-0.67-LIGHT RULESET,ALL_ST=CLASSROOM/LECTURE HALL/TRAINING ROOM OTHER_FL=BUILDING STORY 1_SCH=D 3,297.00,39.6,1128.600,3.800,28.490,0.000,0.500,0.200,0.300,1.000,General,37.526,1015.740
 Lights Internal Gains Nominal, ALL_ST=CLASSROOM/LECTURE HALL/TRAINING ROOM OTHER_FL=BUILDING STORY 2_SCH=D SPACE FUNCTION CLASSROOM/LECTURE HALL/TRAINING ROOM OTHER LIGHTS 85.0 PERCENT REDUCTION,NECB-D-OCCUPANCY-NECB-D-LIGHTING-0.5-0.0-0.67-LIGHT RULESET,ALL_ST=CLASSROOM/LECTURE HALL/TRAINING ROOM OTHER_FL=BUILDING STORY 2_SCH=D,297.00,39.6,1128.600,3.800,28.490,0.000,0.500,0.200,0.300,1.000,General,37.526,1015.740
 Lights Internal Gains Nominal, ALL_ST=CLASSROOM/LECTURE HALL/TRAINING ROOM OTHER_FL=BUILDING STORY 2_SCH=D 1 SPACE FUNCTION CLASSROOM/LECTURE HALL/TRAINING ROOM OTHER LIGHTS 85.0 PERCENT REDUCTION,NECB-D-OCCUPANCY-NECB-D-LIGHTING-0.5-0.0-0.67-LIGHT RULESET,ALL_ST=CLASSROOM/LECTURE HALL/TRAINING ROOM OTHER_FL=BUILDING STORY 2_SCH=D 1,1431.00,190.9,5437.800,3.800,28.490,0.000,0.500,0.200,0.300,1.000,General,180.807,4894.020
 Lights Internal Gains Nominal, ALL_ST=CLASSROOM/LECTURE HALL/TRAINING ROOM OTHER_FL=BUILDING STORY 2_SCH=D 2 SPACE FUNCTION CLASSROOM/LECTURE HALL/TRAINING ROOM OTHER LIGHTS 85.0 PERCENT REDUCTION,NECB-D-OCCUPANCY-NECB-D-LIGHTING-0.5-0.0-0.67-LIGHT RULESET,ALL_ST=CLASSROOM/LECTURE HALL/TRAINING ROOM OTHER_FL=BUILDING STORY 2_SCH=D 2,1431.00,190.9,5437.800,3.800,28.490,0.000,0.500,0.200,0.300,1.000,General,180.807,4894.020
 Lights Internal Gains Nominal, ALL_ST=CLASSROOM/LECTURE HALL/TRAINING ROOM OTHER_FL=BUILDING STORY 2_SCH=D 3 SPACE FUNCTION CLASSROOM/LECTURE HALL/TRAINING ROOM OTHER LIGHTS 85.0 PERCENT REDUCTION,NECB-D-OCCUPANCY-NECB-D-LIGHTING-0.5-0.0-0.67-LIGHT RULESET,ALL_ST=CLASSROOM/LECTURE HALL/TRAINING ROOM OTHER_FL=BUILDING STORY 2_SCH=D 3,297.00,39.6,1128.600,3.800,28.490,0.000,0.500,0.200,0.300,1.000,General,37.526,1015.740
 Lights Internal Gains Nominal, ALL_ST=CONFERENCE/MEETING/MULTI-PURPOSE ROOM_FL=BUILDING STORY 1_SCH=C SPACE FUNCTION CONFERENCE/MEETING/MULTI-PURPOSE ROOM LIGHTS 85.0 PERCENT REDUCTION,NECB-C-OCCUPANCY-NECB-C-LIGHTING-0.5-0.0-0.67-LIGHT RULESET,ALL_ST=CONFERENCE/MEETING/MULTI-PURPOSE ROOM_FL=BUILDING STORY 1_SCH=C,624.00,124.8,3276.000,5.250,26.240,0.000,0.500,0.200,0.300,1.000,General,108.927,2948.400
 Lights Internal Gains Nominal, WILD_ST=CORRIDOR/TRANSITION AREA OTHER-SCH-D_FL=BUILDING STORY 1_SCH=D SPACE FUNCTION CORRIDOR/TRANSITION AREA OTHER-SCH-D LIGHTS 85.0 PERCENT REDUCTION,NECB-D-LIGHTING,WILD_ST=CORRIDOR/TRANSITION AREA OTHER-SCH-D_FL=BUILDING STORY 1_SCH=D,1140.00,11.4,2508.000,2.200,219.920,0.000,0.500,0.200,0.300,1.000,General,125.400,2257.200
 Lights Internal Gains Nominal, WILD_ST=CORRIDOR/TRANSITION AREA OTHER-SCH-D_FL=BUILDING STORY 1_SCH=D 1 SPACE FUNCTION CORRIDOR/TRANSITION AREA OTHER-SCH-D LIGHTS 85.0 PERCENT REDUCTION,NECB-D-LIGHTING,WILD_ST=CORRIDOR/TRANSITION AREA OTHER-SCH-D_FL=BUILDING STORY 1_SCH=D 1,960.00,9.6,2112.000,2.200,219.920,0.000,0.500,0.200,0.300,1.000,General,105.600,1900.800
 Lights Internal Gains Nominal, WILD_ST=CORRIDOR/TRANSITION AREA OTHER-SCH-D_FL=BUILDING STORY 2_SCH=D SPACE FUNCTION CORRIDOR/TRANSITION AREA OTHER-SCH-D LIGHTS 85.0 PERCENT REDUCTION,NECB-D-LIGHTING,WILD_ST=CORRIDOR/TRANSITION AREA OTHER-SCH-D_FL=BUILDING STORY 2_SCH=D,1140.00,11.4,2508.000,2.200,219.920,0.000,0.500,0.200,0.300,1.000,General,125.400,2257.200
 Lights Internal Gains Nominal, WILD_ST=CORRIDOR/TRANSITION AREA OTHER-SCH-D_FL=BUILDING STORY 2_SCH=D 1 SPACE FUNCTION CORRIDOR/TRANSITION AREA OTHER-SCH-D LIGHTS 85.0 PERCENT REDUCTION,NECB-D-LIGHTING,WILD_ST=CORRIDOR/TRANSITION AREA OTHER-SCH-D_FL=BUILDING STORY 2_SCH=D 1,960.00,9.6,2112.000,2.200,219.920,0.000,0.500,0.200,0.300,1.000,General,105.600,1900.800
 Lights Internal Gains Nominal, WILD_ST=ELECTRICAL/MECHANICAL ROOM-SCH-D_FL=BUILDING STORY 1_SCH=D SPACE FUNCTION ELECTRICAL/MECHANICAL ROOM-SCH-D LIGHTS 85.0 PERCENT REDUCTION,NECB-D-LIGHTING,WILD_ST=ELECTRICAL/MECHANICAL ROOM-SCH-D_FL=BUILDING STORY 1_SCH=D,342.00,1.7,786.600,2.300,459.833,0.000,0.500,0.200,0.300,1.000,General,39.330,707.940
 Lights Internal Gains Nominal, WILD_ST=ELECTRICAL/MECHANICAL ROOM-SCH-D_FL=BUILDING STORY 2_SCH=D SPACE FUNCTION ELECTRICAL/MECHANICAL ROOM-SCH-D LIGHTS 85.0 PERCENT REDUCTION,NECB-D-LIGHTING,WILD_ST=ELECTRICAL/MECHANICAL ROOM-SCH-D_FL=BUILDING STORY 2_SCH=D,342.00,1.7,786.600,2.300,459.833,0.000,0.500,0.200,0.300,1.000,General,39.330,707.940
 Lights Internal Gains Nominal, ALL_ST=FOOD PREPARATION AREA_FL=BUILDING STORY 1_SCH=B SPACE FUNCTION FOOD PREPARATION AREA LIGHTS 85.0 PERCENT REDUCTION,NECB-B-OCCUPANCY-NECB-B-LIGHTING-0.0-0.0-0.67-LIGHT RULESET,ALL_ST=FOOD PREPARATION AREA_FL=BUILDING STORY 1_SCH=B,216.00,10.8,1263.600,5.850,116.957,0.000,0.500,0.200,0.300,1.000,General,126.360,1137.240
 Lights Internal Gains Nominal, ALL_ST=GYMNASIUM/FITNESS CENTRE PLAYING AREA_FL=BUILDING STORY 1_SCH=B SPACE FUNCTION GYMNASIUM/FITNESS CENTRE PLAYING AREA LIGHTS 85.0 PERCENT REDUCTION,NECB-B-OCCUPANCY-NECB-B-LIGHTING-0.0-0.0-0.67-LIGHT RULESET,ALL_ST=GYMNASIUM/FITNESS CENTRE PLAYING AREA_FL=BUILDING STORY 1_SCH=B,1976.00,395.3,9089.600,4.600,22.992,0.000,0.500,0.200,0.300,1.000,General,908.960,8180.640
 Lights Internal Gains Nominal, ALL_ST=GYMNASIUM/FITNESS CENTRE PLAYING AREA_FL=BUILDING STORY 1_SCH=B 1 SPACE FUNCTION GYMNASIUM/FITNESS CENTRE PLAYING AREA LIGHTS 85.0 PERCENT REDUCTION,NECB-B-OCCUPANCY-NECB-B-LIGHTING-0.0-0.0-0.67-LIGHT RULESET,ALL_ST=GYMNASIUM/FITNESS CENTRE PLAYING AREA_FL=BUILDING STORY 1_SCH=B 1,1248.00,249.7,5740.800,4.600,22.992,0.000,0.500,0.200,0.300,1.000,General,574.080,5166.720
 Lights Internal Gains Nominal, ALL_ST=LIBRARY READING AREA_FL=BUILDING STORY 2_SCH=C SPACE FUNCTION LIBRARY READING AREA LIGHTS 85.0 PERCENT REDUCTION,NECB-C-OCCUPANCY-NECB-C-LIGHTING-0.0-0.0-0.67-LIGHT RULESET,ALL_ST=LIBRARY READING AREA_FL=BUILDING STORY 2_SCH=C,840.00,42.0,4326.000,5.150,102.963,0.000,0.500,0.200,0.300,1.000,General,216.300,3893.400
 Lights Internal Gains Nominal, ALL_ST=LOBBY - OTHER_FL=BUILDING STORY 1_SCH=C SPACE FUNCTION LOBBY - OTHER LIGHTS 85.0 PERCENT REDUCTION,NECB-C-OCCUPANCY-NECB-C-LIGHTING-0.0-0.0-0.67-LIGHT RULESET,ALL_ST=LOBBY - OTHER_FL=BUILDING STORY 1_SCH=C,210.00,21.0,945.000,4.500,44.984,0.000,0.500,0.200,0.300,1.000,General,47.250,850.500
 Lights Internal Gains Nominal, ALL_ST=LOBBY - OTHER_FL=BUILDING STORY 2_SCH=C SPACE FUNCTION LOBBY - OTHER LIGHTS 85.0 PERCENT REDUCTION,NECB-C-OCCUPANCY-NECB-C-LIGHTING-0.0-0.0-0.67-LIGHT RULESET,ALL_ST=LOBBY - OTHER_FL=BUILDING STORY 2_SCH=C,210.00,21.0,945.000,4.500,44.984,0.000,0.500,0.200,0.300,1.000,General,47.250,850.500
 Lights Internal Gains Nominal, ALL_ST=OFFICE ENCLOSED <= 25 M2_FL=BUILDING STORY 1_SCH=A SPACE FUNCTION OFFICE ENCLOSED <= 25 M2 LIGHTS 85.0 PERCENT REDUCTION,NECB-A-OCCUPANCY-NECB-A-LIGHTING-0.3-0.1-0.67-LIGHT RULESET,ALL_ST=OFFICE ENCLOSED <= 25 M2_FL=BUILDING STORY 1_SCH=A,532.00,26.6,2128.000,4.000,79.971,0.000,0.500,0.200,0.300,1.000,General,74.374,1915.200
 Lights Internal Gains Nominal, ALL_ST=OFFICE ENCLOSED <= 25 M2_FL=BUILDING STORY 2_SCH=A SPACE FUNCTION OFFICE ENCLOSED <= 25 M2 LIGHTS 85.0 PERCENT REDUCTION,NECB-A-OCCUPANCY-NECB-A-LIGHTING-0.3-0.1-0.67-LIGHT RULESET,ALL_ST=OFFICE ENCLOSED <= 25 M2_FL=BUILDING STORY 2_SCH=A,532.00,26.6,2128.000,4.000,79.971,0.000,0.500,0.200,0.300,1.000,General,74.374,1915.200
 Lights Internal Gains Nominal, WET_ST=WASHROOM - OTHER-SCH-D_FL=BUILDING STORY 1_SCHD SPACE FUNCTION WASHROOM - OTHER-SCH-D LIGHTS 85.0 PERCENT REDUCTION,NECB-D-OCCUPANCY-NECB-D-LIGHTING-0.5-0.0-0.67-LIGHT RULESET,WET_ST=WASHROOM - OTHER-SCH-D_FL=BUILDING STORY 1_SCHD,210.00,7.0,714.000,3.400,101.963,0.000,0.500,0.200,0.300,1.000,General,23.741,642.600
 Lights Internal Gains Nominal, WET_ST=WASHROOM - OTHER-SCH-D_FL=BUILDING STORY 2_SCHD SPACE FUNCTION WASHROOM - OTHER-SCH-D LIGHTS 85.0 PERCENT REDUCTION,NECB-D-OCCUPANCY-NECB-D-LIGHTING-0.5-0.0-0.67-LIGHT RULESET,WET_ST=WASHROOM - OTHER-SCH-D_FL=BUILDING STORY 2_SCHD,210.00,7.0,714.000,3.400,101.963,0.000,0.500,0.200,0.300,1.000,General,23.741,642.600
! <ElectricEquipment Internal Gains Nominal>,Name,Schedule Name,Zone Name,Zone Floor Area {m2},# Zone Occupants,Equipment Level {W},Equipment/Floor Area {W/m2},Equipment per person {W/person},Fraction Latent,Fraction Radiant,Fraction Lost,Fraction Convected,End-Use SubCategory,Nominal Minimum Equipment Level {W},Nominal Maximum Equipment Level {W}
 ElectricEquipment Internal Gains Nominal, ALL_ST=AUDIENCE SEATING AREA PERMANENT - AUDITORIUM_FL=BUILDING STORY 1_SCH=C SPACE FUNCTION AUDIENCE SEATING AREA PERMANENT - AUDITORIUM ELEC EQUIP 50.0 PERCENT REDUCTION,NECB-C-ELECTRIC-EQUIPMENT,ALL_ST=AUDIENCE SEATING AREA PERMANENT - AUDITORIUM_FL=BUILDING STORY 1_SCH=C,988.00,197.7,1235.449,1.250,6.250,0.000,0.500,0.000,0.500,General,61.772,1111.904
 ElectricEquipment Internal Gains Nominal, ALL_ST=CLASSROOM/LECTURE HALL/TRAINING ROOM OTHER_FL=BUILDING STORY 1_SCH=D SPACE FUNCTION CLASSROOM/LECTURE HALL/TRAINING ROOM OTHER ELEC EQUIP 50.0 PERCENT REDUCTION,NECB-D-ELECTRIC-EQUIPMENT,ALL_ST=CLASSROOM/LECTURE HALL/TRAINING ROOM OTHER_FL=BUILDING STORY 1_SCH=D,297.00,39.6,742.770,2.501,18.750,0.000,0.500,0.000,0.500,General,37.138,668.493
 ElectricEquipment Internal Gains Nominal, ALL_ST=CLASSROOM/LECTURE HALL/TRAINING ROOM OTHER_FL=BUILDING STORY 1_SCH=D 1 SPACE FUNCTION CLASSROOM/LECTURE HALL/TRAINING ROOM OTHER ELEC EQUIP 50.0 PERCENT REDUCTION,NECB-D-ELECTRIC-EQUIPMENT,ALL_ST=CLASSROOM/LECTURE HALL/TRAINING ROOM OTHER_FL=BUILDING STORY 1_SCH=D 1,1431.00,190.9,3578.800,2.501,18.750,0.000,0.500,0.000,0.500,General,178.940,3220.920
 ElectricEquipment Internal Gains Nominal, ALL_ST=CLASSROOM/LECTURE HALL/TRAINING ROOM OTHER_FL=BUILDING STORY 1_SCH=D 2 SPACE FUNCTION CLASSROOM/LECTURE HALL/TRAINING ROOM OTHER ELEC EQUIP 50.0 PERCENT REDUCTION,NECB-D-ELECTRIC-EQUIPMENT,ALL_ST=CLASSROOM/LECTURE HALL/TRAINING ROOM OTHER_FL=BUILDING STORY 1_SCH=D 2,1431.00,190.9,3578.800,2.501,18.750,0.000,0.500,0.000,0.500,General,178.940,3220.920
 ElectricEquipment Internal Gains Nominal, ALL_ST=CLASSROOM/LECTURE HALL/TRAINING ROOM OTHER_FL=BUILDING STORY 1_SCH=D 3 SPACE FUNCTION CLASSROOM/LECTURE HALL/TRAINING ROOM OTHER ELEC EQUIP 50.0 PERCENT REDUCTION,NECB-D-ELECTRIC-EQUIPMENT,ALL_ST=CLASSROOM/LECTURE HALL/TRAINING ROOM OTHER_FL=BUILDING STORY 1_SCH=D 3,297.00,39.6,742.770,2.501,18.750,0.000,0.500,0.000,0.500,General,37.138,668.493
 ElectricEquipment Internal Gains Nominal, ALL_ST=CLASSROOM/LECTURE HALL/TRAINING ROOM OTHER_FL=BUILDING STORY 2_SCH=D SPACE FUNCTION CLASSROOM/LECTURE HALL/TRAINING ROOM OTHER ELEC EQUIP 50.0 PERCENT REDUCTION,NECB-D-ELECTRIC-EQUIPMENT,ALL_ST=CLASSROOM/LECTURE HALL/TRAINING ROOM OTHER_FL=BUILDING STORY 2_SCH=D,297.00,39.6,742.770,2.501,18.750,0.000,0.500,0.000,0.500,General,37.138,668.493
 ElectricEquipment Internal Gains Nominal, ALL_ST=CLASSROOM/LECTURE HALL/TRAINING ROOM OTHER_FL=BUILDING STORY 2_SCH=D 1 SPACE FUNCTION CLASSROOM/LECTURE HALL/TRAINING ROOM OTHER ELEC EQUIP 50.0 PERCENT REDUCTION,NECB-D-ELECTRIC-EQUIPMENT,ALL_ST=CLASSROOM/LECTURE HALL/TRAINING ROOM OTHER_FL=BUILDING STORY 2_SCH=D 1,1431.00,190.9,3578.800,2.501,18.750,0.000,0.500,0.000,0.500,General,178.940,3220.920
 ElectricEquipment Internal Gains Nominal, ALL_ST=CLASSROOM/LECTURE HALL/TRAINING ROOM OTHER_FL=BUILDING STORY 2_SCH=D 2 SPACE FUNCTION CLASSROOM/LECTURE HALL/TRAINING ROOM OTHER ELEC EQUIP 50.0 PERCENT REDUCTION,NECB-D-ELECTRIC-EQUIPMENT,ALL_ST=CLASSROOM/LECTURE HALL/TRAINING ROOM OTHER_FL=BUILDING STORY 2_SCH=D 2,1431.00,190.9,3578.800,2.501,18.750,0.000,0.500,0.000,0.500,General,178.940,3220.920
 ElectricEquipment Internal Gains Nominal, ALL_ST=CLASSROOM/LECTURE HALL/TRAINING ROOM OTHER_FL=BUILDING STORY 2_SCH=D 3 SPACE FUNCTION CLASSROOM/LECTURE HALL/TRAINING ROOM OTHER ELEC EQUIP 50.0 PERCENT REDUCTION,NECB-D-ELECTRIC-EQUIPMENT,ALL_ST=CLASSROOM/LECTURE HALL/TRAINING ROOM OTHER_FL=BUILDING STORY 2_SCH=D 3,297.00,39.6,742.770,2.501,18.750,0.000,0.500,0.000,0.500,General,37.138,668.493
 ElectricEquipment Internal Gains Nominal, ALL_ST=CONFERENCE/MEETING/MULTI-PURPOSE ROOM_FL=BUILDING STORY 1_SCH=C SPACE FUNCTION CONFERENCE/MEETING/MULTI-PURPOSE ROOM ELEC EQUIP 50.0 PERCENT REDUCTION,NECB-C-ELECTRIC-EQUIPMENT,ALL_ST=CONFERENCE/MEETING/MULTI-PURPOSE ROOM_FL=BUILDING STORY 1_SCH=C,624.00,124.8,312.113,0.500,2.500,0.000,0.500,0.000,0.500,General,15.606,280.902
 ElectricEquipment Internal Gains Nominal, WILD_ST=ELECTRICAL/MECHANICAL ROOM-SCH-D_FL=BUILDING STORY 1_SCH=D SPACE FUNCTION ELECTRICAL/MECHANICAL ROOM-SCH-D ELEC EQUIP 50.0 PERCENT REDUCTION,NECB-D-ELECTRIC-EQUIPMENT,WILD_ST=ELECTRICAL/MECHANICAL ROOM-SCH-D_FL=BUILDING STORY 1_SCH=D,342.00,1.7,171.062,0.500,100.000,0.000,0.500,0.000,0.500,General,8.553,153.956
 ElectricEquipment Internal Gains Nominal, WILD_ST=ELECTRICAL/MECHANICAL ROOM-SCH-D_FL=BUILDING STORY 2_SCH=D SPACE FUNCTION ELECTRICAL/MECHANICAL ROOM-SCH-D ELEC EQUIP 50.0 PERCENT REDUCTION,NECB-D-ELECTRIC-EQUIPMENT,WILD_ST=ELECTRICAL/MECHANICAL ROOM-SCH-D_FL=BUILDING STORY 2_SCH=D,342.00,1.7,171.062,0.500,100.000,0.000,0.500,0.000,0.500,General,8.553,153.956
 ElectricEquipment Internal Gains Nominal, ALL_ST=FOOD PREPARATION AREA_FL=BUILDING STORY 1_SCH=B SPACE FUNCTION FOOD PREPARATION AREA ELEC EQUIP 50.0 PERCENT REDUCTION,NECB-B-ELECTRIC-EQUIPMENT,ALL_ST=FOOD PREPARATION AREA_FL=BUILDING STORY 1_SCH=B,216.00,10.8,1080.392,5.002,100.000,0.000,0.500,0.000,0.500,General,108.039,972.353
 ElectricEquipment Internal Gains Nominal, ALL_ST=GYMNASIUM/FITNESS CENTRE PLAYING AREA_FL=BUILDING STORY 1_SCH=B SPACE FUNCTION GYMNASIUM/FITNESS CENTRE PLAYING AREA ELEC EQUIP 50.0 PERCENT REDUCTION,NECB-B-ELECTRIC-EQUIPMENT,ALL_ST=GYMNASIUM/FITNESS CENTRE PLAYING AREA_FL=BUILDING STORY 1_SCH=B,1976.00,395.3,1482.539,0.750,3.750,0.000,0.500,0.000,0.500,General,148.254,1334.285
 ElectricEquipment Internal Gains Nominal, ALL_ST=GYMNASIUM/FITNESS CENTRE PLAYING AREA_FL=BUILDING STORY 1_SCH=B 1 SPACE FUNCTION GYMNASIUM/FITNESS CENTRE PLAYING AREA ELEC EQUIP 50.0 PERCENT REDUCTION,NECB-B-ELECTRIC-EQUIPMENT,ALL_ST=GYMNASIUM/FITNESS CENTRE PLAYING AREA_FL=BUILDING STORY 1_SCH=B 1,1248.00,249.7,936.340,0.750,3.750,0.000,0.500,0.000,0.500,General,93.634,842.706
 ElectricEquipment Internal Gains Nominal, ALL_ST=LIBRARY READING AREA_FL=BUILDING STORY 2_SCH=C SPACE FUNCTION LIBRARY READING AREA ELEC EQUIP 50.0 PERCENT REDUCTION,NECB-C-ELECTRIC-EQUIPMENT,ALL_ST=LIBRARY READING AREA_FL=BUILDING STORY 2_SCH=C,840.00,42.0,420.153,0.500,10.000,0.000,0.500,0.000,0.500,General,21.008,378.137
 ElectricEquipment Internal Gains Nominal, ALL_ST=LOBBY - OTHER_FL=BUILDING STORY 1_SCH=C SPACE FUNCTION LOBBY - OTHER ELEC EQUIP 50.0 PERCENT REDUCTION,NECB-C-ELECTRIC-EQUIPMENT,ALL_ST=LOBBY - OTHER_FL=BUILDING STORY 1_SCH=C,210.00,21.0,105.038,0.500,5.000,0.000,0.500,0.000,0.500,General,5.252,94.534
 ElectricEquipment Internal Gains Nominal, ALL_ST=LOBBY - OTHER_FL=BUILDING STORY 2_SCH=C SPACE FUNCTION LOBBY - OTHER ELEC EQUIP 50.0 PERCENT REDUCTION,NECB-C-ELECTRIC-EQUIPMENT,ALL_ST=LOBBY - OTHER_FL=BUILDING STORY 2_SCH=C,210.00,21.0,105.038,0.500,5.000,0.000,0.500,0.000,0.500,General,5.252,94.534
 ElectricEquipment Internal Gains Nominal, ALL_ST=OFFICE ENCLOSED <= 25 M2_FL=BUILDING STORY 1_SCH=A SPACE FUNCTION OFFICE ENCLOSED <= 25 M2 ELEC EQUIP 50.0 PERCENT REDUCTION,NECB-A-ELECTRIC-EQUIPMENT,ALL_ST=OFFICE ENCLOSED <= 25 M2_FL=BUILDING STORY 1_SCH=A,532.00,26.6,1995.725,3.751,75.000,0.000,0.500,0.000,0.500,General,399.145,1796.153
 ElectricEquipment Internal Gains Nominal, ALL_ST=OFFICE ENCLOSED <= 25 M2_FL=BUILDING STORY 2_SCH=A SPACE FUNCTION OFFICE ENCLOSED <= 25 M2 ELEC EQUIP 50.0 PERCENT REDUCTION,NECB-A-ELECTRIC-EQUIPMENT,ALL_ST=OFFICE ENCLOSED <= 25 M2_FL=BUILDING STORY 2_SCH=A,532.00,26.6,1995.725,3.751,75.000,0.000,0.500,0.000,0.500,General,399.145,1796.153
 ElectricEquipment Internal Gains Nominal, WET_ST=WASHROOM - OTHER-SCH-D_FL=BUILDING STORY 1_SCHD SPACE FUNCTION WASHROOM - OTHER-SCH-D ELEC EQUIP 50.0 PERCENT REDUCTION,NECB-D-ELECTRIC-EQUIPMENT,WET_ST=WASHROOM - OTHER-SCH-D_FL=BUILDING STORY 1_SCHD,210.00,7.0,105.038,0.500,15.000,0.000,0.500,0.000,0.500,General,5.252,94.534
 ElectricEquipment Internal Gains Nominal, WET_ST=WASHROOM - OTHER-SCH-D_FL=BUILDING STORY 2_SCHD SPACE FUNCTION WASHROOM - OTHER-SCH-D ELEC EQUIP 50.0 PERCENT REDUCTION,NECB-D-ELECTRIC-EQUIPMENT,WET_ST=WASHROOM - OTHER-SCH-D_FL=BUILDING STORY 2_SCHD,210.00,7.0,105.038,0.500,15.000,0.000,0.500,0.000,0.500,General,5.252,94.534
! <Shadowing/Sun Position Calculations Annual Simulations>, Calculation Method, Value {days}, Allowable Number Figures in Shadow Overlap {}, Polygon Clipping Algorithm, Sky Diffuse Modeling Algorithm, External Shading Calculation Method, Output External Shading Calculation Results, Disable Self-Shading Within Shading Zone Groups, Disable Self-Shading From Shading Zone Groups to Other Zones
Shadowing/Sun Position Calculations Annual Simulations,AverageOverDaysInFrequency,30,15000,SutherlandHodgman,SimpleSkyDiffuseModeling,InternalCalculation,No,No,No
! <Water Heater Information>,Type,Name,Volume {m3},Maximum Capacity {W},Standard Rated Recovery Efficiency, Standard Rated Energy Factor
! <Heat Pump Water Heater Information>,Type,Name,Volume {m3},Maximum Capacity {W},Standard Rated Recovery Efficiency,Standard Rated Energy Factor,"DX Coil Total Cooling Rate {W, HPWH Only}"
! <ZoneInfiltration Airflow Stats Nominal>,Name,Schedule Name,Zone Name, Zone Floor Area {m2}, # Zone Occupants,Design Volume Flow Rate {m3/s},Volume Flow Rate/Floor Area {m3/s/m2},Volume Flow Rate/Exterior Surface Area {m3/s/m2},ACH - Air Changes per Hour,Equation A - Constant Term Coefficient {},Equation B - Temperature Term Coefficient {1/C},Equation C - Velocity Term Coefficient {s/m}, Equation D - Velocity Squared Term Coefficient {s2/m2}
 ZoneInfiltration Airflow Stats Nominal, AUDITORIUM_ZN_1_FLR_1 INFILTRATION,ALWAYS ON DISCRETE,ALL_ST=AUDIENCE SEATING AREA PERMANENT - AUDITORIUM_FL=BUILDING STORY 1_SCH=C,988.00,197.7,4.445E-002,4.499E-005,3.440E-005,2.024E-002,0.000,0.000,0.224,0.000
 ZoneInfiltration Airflow Stats Nominal, CORNER_CLASS_1_POD_1_ZN_1_FLR_1 INFILTRATION,ALWAYS ON DISCRETE,ALL_ST=CLASSROOM/LECTURE HALL/TRAINING ROOM OTHER_FL=BUILDING STORY 1_SCH=D,297.00,39.6,2.752E-003,9.266E-006,1.147E-005,8.340E-003,0.000,0.000,0.224,0.000
 ZoneInfiltration Airflow Stats Nominal, CORNER_CLASS_1_POD_2_ZN_1_FLR_1 INFILTRATION,ALWAYS ON DISCRETE,ALL_ST=CLASSROOM/LECTURE HALL/TRAINING ROOM OTHER_FL=BUILDING STORY 1_SCH=D,297.00,39.6,2.752E-003,9.266E-006,1.147E-005,8.340E-003,0.000,0.000,0.224,0.000
 ZoneInfiltration Airflow Stats Nominal, CORNER_CLASS_1_POD_3_ZN_1_FLR_1 INFILTRATION,ALWAYS ON DISCRETE,ALL_ST=CLASSROOM/LECTURE HALL/TRAINING ROOM OTHER_FL=BUILDING STORY 1_SCH=D,297.00,39.6,2.752E-003,9.266E-006,1.147E-005,8.340E-003,0.000,0.000,0.224,0.000
 ZoneInfiltration Airflow Stats Nominal, MULT_CLASS_2_POD_1_ZN_1_FLR_1 INFILTRATION,ALWAYS ON DISCRETE,ALL_ST=CLASSROOM/LECTURE HALL/TRAINING ROOM OTHER_FL=BUILDING STORY 1_SCH=D 1,1431.00,190.9,7.293E-003,5.096E-006,1.147E-005,4.587E-003,0.000,0.000,0.224,0.000
 ZoneInfiltration Airflow Stats Nominal, MULT_CLASS_2_POD_2_ZN_1_FLR_1 INFILTRATION,ALWAYS ON DISCRETE,ALL_ST=CLASSROOM/LECTURE HALL/TRAINING ROOM OTHER_FL=BUILDING STORY 1_SCH=D 1,1431.00,190.9,7.293E-003,5.096E-006,1.147E-005,4.587E-003,0.000,0.000,0.224,0.000
 ZoneInfiltration Airflow Stats Nominal, MULT_CLASS_2_POD_3_ZN_1_FLR_1 INFILTRATION,ALWAYS ON DISCRETE,ALL_ST=CLASSROOM/LECTURE HALL/TRAINING ROOM OTHER_FL=BUILDING STORY 1_SCH=D 1,1431.00,190.9,7.293E-003,5.096E-006,1.147E-005,4.587E-003,0.000,0.000,0.224,0.000
 ZoneInfiltration Airflow Stats Nominal, MULT_CLASS_1_POD_1_ZN_1_FLR_1 INFILTRATION,ALWAYS ON DISCRETE,ALL_ST=CLASSROOM/LECTURE HALL/TRAINING ROOM OTHER_FL=BUILDING STORY 1_SCH=D 2,1431.00,190.9,7.293E-003,5.096E-006,1.147E-005,4.587E-003,0.000,0.000,0.224,0.000
 ZoneInfiltration Airflow Stats Nominal, MULT_CLASS_1_POD_2_ZN_1_FLR_1 INFILTRATION,ALWAYS ON DISCRETE,ALL_ST=CLASSROOM/LECTURE HALL/TRAINING ROOM OTHER_FL=BUILDING STORY 1_SCH=D 2,1431.00,190.9,7.293E-003,5.096E-006,1.147E-005,4.587E-003,0.000,0.000,0.224,0.000
 ZoneInfiltration Airflow Stats Nominal, MULT_CLASS_1_POD_3_ZN_1_FLR_1 INFILTRATION,ALWAYS ON DISCRETE,ALL_ST=CLASSROOM/LECTURE HALL/TRAINING ROOM OTHER_FL=BUILDING STORY 1_SCH=D 2,1431.00,190.9,7.293E-003,5.096E-006,1.147E-005,4.587E-003,0.000,0.000,0.224,0.000
 ZoneInfiltration Airflow Stats Nominal, CORNER_CLASS_2_POD_1_ZN_1_FLR_1 INFILTRATION,ALWAYS ON DISCRETE,ALL_ST=CLASSROOM/LECTURE HALL/TRAINING ROOM OTHER_FL=BUILDING STORY 1_SCH=D 3,297.00,39.6,2.752E-003,9.266E-006,1.147E-005,8.340E-003,0.000,0.000,0.224,0.000
 ZoneInfiltration Airflow Stats Nominal, CORNER_CLASS_2_POD_2_ZN_1_FLR_1 INFILTRATION,ALWAYS ON DISCRETE,ALL_ST=CLASSROOM/LECTURE HALL/TRAINING ROOM OTHER_FL=BUILDING STORY 1_SCH=D 3,297.00,39.6,2.752E-003,9.266E-006,1.147E-005,8.340E-003,0.000,0.000,0.224,0.000
 ZoneInfiltration Airflow Stats Nominal, CORNER_CLASS_2_POD_3_ZN_1_FLR_1 INFILTRATION,ALWAYS ON DISCRETE,ALL_ST=CLASSROOM/LECTURE HALL/TRAINING ROOM OTHER_FL=BUILDING STORY 1_SCH=D 3,297.00,39.6,2.752E-003,9.266E-006,1.147E-005,8.340E-003,0.000,0.000,0.224,0.000
 ZoneInfiltration Airflow Stats Nominal, CORNER_CLASS_2_POD_1_ZN_1_FLR_2 INFILTRATION,ALWAYS ON DISCRETE,ALL_ST=CLASSROOM/LECTURE HALL/TRAINING ROOM OTHER_FL=BUILDING STORY 2_SCH=D,297.00,39.6,6.158E-003,2.073E-005,1.147E-005,1.866E-002,0.000,0.000,0.224,0.000
 ZoneInfiltration Airflow Stats Nominal, CORNER_CLASS_2_POD_2_ZN_1_FLR_2 INFILTRATION,ALWAYS ON DISCRETE,ALL_ST=CLASSROOM/LECTURE HALL/TRAINING ROOM OTHER_FL=BUILDING STORY 2_SCH=D,297.00,39.6,6.158E-003,2.073E-005,1.147E-005,1.866E-002,0.000,0.000,0.224,0.000
 ZoneInfiltration Airflow Stats Nominal, CORNER_CLASS_2_POD_3_ZN_1_FLR_2 INFILTRATION,ALWAYS ON DISCRETE,ALL_ST=CLASSROOM/LECTURE HALL/TRAINING ROOM OTHER_FL=BUILDING STORY 2_SCH=D,297.00,39.6,6.158E-003,2.073E-005,1.147E-005,1.866E-002,0.000,0.000,0.224,0.000
 ZoneInfiltration Airflow Stats Nominal, MULT_CLASS_1_POD_1_ZN_1_FLR_2 INFILTRATION,ALWAYS ON DISCRETE,ALL_ST=CLASSROOM/LECTURE HALL/TRAINING ROOM OTHER_FL=BUILDING STORY 2_SCH=D 1,1431.00,190.9,2.370E-002,1.656E-005,1.147E-005,1.491E-002,0.000,0.000,0.224,0.000
 ZoneInfiltration Airflow Stats Nominal, MULT_CLASS_1_POD_2_ZN_1_FLR_2 INFILTRATION,ALWAYS ON DISCRETE,ALL_ST=CLASSROOM/LECTURE HALL/TRAINING ROOM OTHER_FL=BUILDING STORY 2_SCH=D 1,1431.00,190.9,2.370E-002,1.656E-005,1.147E-005,1.491E-002,0.000,0.000,0.224,0.000
 ZoneInfiltration Airflow Stats Nominal, MULT_CLASS_1_POD_3_ZN_1_FLR_2 INFILTRATION,ALWAYS ON DISCRETE,ALL_ST=CLASSROOM/LECTURE HALL/TRAINING ROOM OTHER_FL=BUILDING STORY 2_SCH=D 1,1431.00,190.9,2.370E-002,1.656E-005,1.147E-005,1.491E-002,0.000,0.000,0.224,0.000
 ZoneInfiltration Airflow Stats Nominal, MULT_CLASS_2_POD_1_ZN_1_FLR_2 INFILTRATION,ALWAYS ON DISCRETE,ALL_ST=CLASSROOM/LECTURE HALL/TRAINING ROOM OTHER_FL=BUILDING STORY 2_SCH=D 2,1431.00,190.9,2.370E-002,1.656E-005,1.147E-005,1.491E-002,0.000,0.000,0.224,0.000
 ZoneInfiltration Airflow Stats Nominal, MULT_CLASS_2_POD_2_ZN_1_FLR_2 INFILTRATION,ALWAYS ON DISCRETE,ALL_ST=CLASSROOM/LECTURE HALL/TRAINING ROOM OTHER_FL=BUILDING STORY 2_SCH=D 2,1431.00,190.9,2.370E-002,1.656E-005,1.147E-005,1.491E-002,0.000,0.000,0.224,0.000
 ZoneInfiltration Airflow Stats Nominal, MULT_CLASS_2_POD_3_ZN_1_FLR_2 INFILTRATION,ALWAYS ON DISCRETE,ALL_ST=CLASSROOM/LECTURE HALL/TRAINING ROOM OTHER_FL=BUILDING STORY 2_SCH=D 2,1431.00,190.9,2.370E-002,1.656E-005,1.147E-005,1.491E-002,0.000,0.000,0.224,0.000
 ZoneInfiltration Airflow Stats Nominal, CORNER_CLASS_1_POD_1_ZN_1_FLR_2 INFILTRATION,ALWAYS ON DISCRETE,ALL_ST=CLASSROOM/LECTURE HALL/TRAINING ROOM OTHER_FL=BUILDING STORY 2_SCH=D 3,297.00,39.6,6.158E-003,2.073E-005,1.147E-005,1.866E-002,0.000,0.000,0.224,0.000
 ZoneInfiltration Airflow Stats Nominal, CORNER_CLASS_1_POD_2_ZN_1_FLR_2 INFILTRATION,ALWAYS ON DISCRETE,ALL_ST=CLASSROOM/LECTURE HALL/TRAINING ROOM OTHER_FL=BUILDING STORY 2_SCH=D 3,297.00,39.6,6.158E-003,2.073E-005,1.147E-005,1.866E-002,0.000,0.000,0.224,0.000
 ZoneInfiltration Airflow Stats Nominal, CORNER_CLASS_1_POD_3_ZN_1_FLR_2 INFILTRATION,ALWAYS ON DISCRETE,ALL_ST=CLASSROOM/LECTURE HALL/TRAINING ROOM OTHER_FL=BUILDING STORY 2_SCH=D 3,297.00,39.6,6.158E-003,2.073E-005,1.147E-005,1.866E-002,0.000,0.000,0.224,0.000
 ZoneInfiltration Airflow Stats Nominal, CAFETERIA_ZN_1_FLR_1 INFILTRATION,ALWAYS ON DISCRETE,ALL_ST=CONFERENCE/MEETING/MULTI-PURPOSE ROOM_FL=BUILDING STORY 1_SCH=C,624.00,124.8,6.880E-003,1.103E-005,3.440E-005,9.923E-003,0.000,0.000,0.224,0.000
 ZoneInfiltration Airflow Stats Nominal, KITCHEN_ZN_1_FLR_1 INFILTRATION,ALWAYS ON DISCRETE,ALL_ST=FOOD PREPARATION AREA_FL=BUILDING STORY 1_SCH=B,216.00,10.8,1.238E-003,5.733E-006,3.440E-005,5.160E-003,0.000,0.000,0.224,0.000
 ZoneInfiltration Airflow Stats Nominal, GYM_ZN_1_FLR_1 INFILTRATION,ALWAYS ON DISCRETE,ALL_ST=GYMNASIUM/FITNESS CENTRE PLAYING AREA_FL=BUILDING STORY 1_SCH=B,1976.00,395.3,6.798E-002,3.440E-005,3.440E-005,1.548E-002,0.000,0.000,0.224,0.000
 ZoneInfiltration Airflow Stats Nominal, AUX_GYM_ZN_1_FLR_1 INFILTRATION,ALWAYS ON DISCRETE,ALL_ST=GYMNASIUM/FITNESS CENTRE PLAYING AREA_FL=BUILDING STORY 1_SCH=B 1,1248.00,249.7,6.385E-002,5.116E-005,3.440E-005,2.302E-002,0.000,0.000,0.224,0.000
 ZoneInfiltration Airflow Stats Nominal, LIBRARY_MEDIA_CENTER_ZN_1_FLR_2 INFILTRATION,ALWAYS ON DISCRETE,ALL_ST=LIBRARY READING AREA_FL=BUILDING STORY 2_SCH=C,840.00,42.0,3.702E-002,4.407E-005,3.440E-005,3.966E-002,0.000,0.000,0.224,0.000
 ZoneInfiltration Airflow Stats Nominal, LOBBY_ZN_1_FLR_1 INFILTRATION,ALWAYS ON DISCRETE,ALL_ST=LOBBY - OTHER_FL=BUILDING STORY 1_SCH=C,210.00,21.0,2.064E-003,9.829E-006,3.440E-005,8.846E-003,0.000,0.000,0.224,0.000
 ZoneInfiltration Airflow Stats Nominal, LOBBY_ZN_1_FLR_2 INFILTRATION,ALWAYS ON DISCRETE,ALL_ST=LOBBY - OTHER_FL=BUILDING STORY 2_SCH=C,210.00,21.0,9.288E-003,4.423E-005,3.440E-005,3.981E-002,0.000,0.000,0.224,0.000
 ZoneInfiltration Airflow Stats Nominal, OFFICES_ZN_1_FLR_1 INFILTRATION,ALWAYS ON DISCRETE,ALL_ST=OFFICE ENCLOSED <= 25 M2_FL=BUILDING STORY 1_SCH=A,532.00,26.6,7.155E-003,1.345E-005,3.440E-005,1.210E-002,0.000,0.000,0.224,0.000
 ZoneInfiltration Airflow Stats Nominal, OFFICES_ZN_1_FLR_2 INFILTRATION,ALWAYS ON DISCRETE,ALL_ST=OFFICE ENCLOSED <= 25 M2_FL=BUILDING STORY 2_SCH=A,532.00,26.6,2.546E-002,4.785E-005,3.440E-005,4.307E-002,0.000,0.000,0.224,0.000
 ZoneInfiltration Airflow Stats Nominal, BATHROOMS_ZN_1_FLR_1 INFILTRATION,ALWAYS ON DISCRETE,WET_ST=WASHROOM - OTHER-SCH-D_FL=BUILDING STORY 1_SCHD,210.00,7.0,2.477E-003,1.179E-005,3.440E-005,1.062E-002,0.000,0.000,0.224,0.000
 ZoneInfiltration Airflow Stats Nominal, BATHROOMS_ZN_1_FLR_2 INFILTRATION,ALWAYS ON DISCRETE,WET_ST=WASHROOM - OTHER-SCH-D_FL=BUILDING STORY 2_SCHD,210.00,7.0,9.701E-003,4.620E-005,3.440E-005,4.158E-002,0.000,0.000,0.224,0.000
 ZoneInfiltration Airflow Stats Nominal, MAIN_CORRIDOR_ZN_1_FLR_1 INFILTRATION,ALWAYS ON DISCRETE,WILD_ST=CORRIDOR/TRANSITION AREA OTHER-SCH-D_FL=BUILDING STORY 1_SCH=D,1140.00,11.4,4.816E-003,4.225E-006,3.440E-005,3.802E-003,0.000,0.000,0.224,0.000
 ZoneInfiltration Airflow Stats Nominal, CORRIDOR_POD_1_ZN_1_FLR_1 INFILTRATION,ALWAYS ON DISCRETE,WILD_ST=CORRIDOR/TRANSITION AREA OTHER-SCH-D_FL=BUILDING STORY 1_SCH=D 1,960.00,9.6,6.880E-004,7.167E-007,1.147E-005,6.450E-004,0.000,0.000,0.224,0.000
 ZoneInfiltration Airflow Stats Nominal, CORRIDOR_POD_2_ZN_1_FLR_1 INFILTRATION,ALWAYS ON DISCRETE,WILD_ST=CORRIDOR/TRANSITION AREA OTHER-SCH-D_FL=BUILDING STORY 1_SCH=D 1,960.00,9.6,6.880E-004,7.167E-007,1.147E-005,6.450E-004,0.000,0.000,0.224,0.000
 ZoneInfiltration Airflow Stats Nominal, CORRIDOR_POD_3_ZN_1_FLR_1 INFILTRATION,ALWAYS ON DISCRETE,WILD_ST=CORRIDOR/TRANSITION AREA OTHER-SCH-D_FL=BUILDING STORY 1_SCH=D 1,960.00,9.6,6.880E-004,7.167E-007,1.147E-005,6.450E-004,0.000,0.000,0.224,0.000
 ZoneInfiltration Airflow Stats Nominal, MAIN_CORRIDOR_ZN_1_FLR_2 INFILTRATION,ALWAYS ON DISCRETE,WILD_ST=CORRIDOR/TRANSITION AREA OTHER-SCH-D_FL=BUILDING STORY 2_SCH=D,1140.00,11.4,4.403E-002,3.863E-005,3.440E-005,3.476E-002,0.000,0.000,0.224,0.000
 ZoneInfiltration Airflow Stats Nominal, CORRIDOR_POD_1_ZN_1_FLR_2 INFILTRATION,ALWAYS ON DISCRETE,WILD_ST=CORRIDOR/TRANSITION AREA OTHER-SCH-D_FL=BUILDING STORY 2_SCH=D 1,960.00,9.6,1.170E-002,1.218E-005,1.147E-005,1.097E-002,0.000,0.000,0.224,0.000
 ZoneInfiltration Airflow Stats Nominal, CORRIDOR_POD_2_ZN_1_FLR_2 INFILTRATION,ALWAYS ON DISCRETE,WILD_ST=CORRIDOR/TRANSITION AREA OTHER-SCH-D_FL=BUILDING STORY 2_SCH=D 1,960.00,9.6,1.170E-002,1.218E-005,1.147E-005,1.097E-002,0.000,0.000,0.224,0.000
 ZoneInfiltration Airflow Stats Nominal, CORRIDOR_POD_3_ZN_1_FLR_2 INFILTRATION,ALWAYS ON DISCRETE,WILD_ST=CORRIDOR/TRANSITION AREA OTHER-SCH-D_FL=BUILDING STORY 2_SCH=D 1,960.00,9.6,1.170E-002,1.218E-005,1.147E-005,1.097E-002,0.000,0.000,0.224,0.000
 ZoneInfiltration Airflow Stats Nominal, MECH_ZN_1_FLR_2 INFILTRATION,ALWAYS ON DISCRETE,WILD_ST=ELECTRICAL/MECHANICAL ROOM-SCH-D_FL=BUILDING STORY 2_SCH=D,342.00,1.7,1.177E-002,3.440E-005,3.440E-005,3.096E-002,0.000,0.000,0.224,0.000
! <AirFlow Model>, Simple
 AirFlow Model, Simple
! <RoomAir Model>, Zone Name, Mixing/Mundt/UCSDDV/UCSDCV/UCSDUFI/UCSDUFE/User Defined
RoomAir Model,ALL_ST=AUDIENCE SEATING AREA PERMANENT - AUDITORIUM_FL=BUILDING STORY 1_SCH=C,Mixing/Well-Stirred
RoomAir Model,ALL_ST=CLASSROOM/LECTURE HALL/TRAINING ROOM OTHER_FL=BUILDING STORY 1_SCH=D,Mixing/Well-Stirred
RoomAir Model,ALL_ST=CLASSROOM/LECTURE HALL/TRAINING ROOM OTHER_FL=BUILDING STORY 1_SCH=D 1,Mixing/Well-Stirred
RoomAir Model,ALL_ST=CLASSROOM/LECTURE HALL/TRAINING ROOM OTHER_FL=BUILDING STORY 1_SCH=D 2,Mixing/Well-Stirred
RoomAir Model,ALL_ST=CLASSROOM/LECTURE HALL/TRAINING ROOM OTHER_FL=BUILDING STORY 1_SCH=D 3,Mixing/Well-Stirred
RoomAir Model,ALL_ST=CLASSROOM/LECTURE HALL/TRAINING ROOM OTHER_FL=BUILDING STORY 2_SCH=D,Mixing/Well-Stirred
RoomAir Model,ALL_ST=CLASSROOM/LECTURE HALL/TRAINING ROOM OTHER_FL=BUILDING STORY 2_SCH=D 1,Mixing/Well-Stirred
RoomAir Model,ALL_ST=CLASSROOM/LECTURE HALL/TRAINING ROOM OTHER_FL=BUILDING STORY 2_SCH=D 2,Mixing/Well-Stirred
RoomAir Model,ALL_ST=CLASSROOM/LECTURE HALL/TRAINING ROOM OTHER_FL=BUILDING STORY 2_SCH=D 3,Mixing/Well-Stirred
RoomAir Model,ALL_ST=CONFERENCE/MEETING/MULTI-PURPOSE ROOM_FL=BUILDING STORY 1_SCH=C,Mixing/Well-Stirred
RoomAir Model,ALL_ST=FOOD PREPARATION AREA_FL=BUILDING STORY 1_SCH=B,Mixing/Well-Stirred
RoomAir Model,ALL_ST=GYMNASIUM/FITNESS CENTRE PLAYING AREA_FL=BUILDING STORY 1_SCH=B,Mixing/Well-Stirred
RoomAir Model,ALL_ST=GYMNASIUM/FITNESS CENTRE PLAYING AREA_FL=BUILDING STORY 1_SCH=B 1,Mixing/Well-Stirred
RoomAir Model,ALL_ST=LIBRARY READING AREA_FL=BUILDING STORY 2_SCH=C,Mixing/Well-Stirred
RoomAir Model,ALL_ST=LOBBY - OTHER_FL=BUILDING STORY 1_SCH=C,Mixing/Well-Stirred
RoomAir Model,ALL_ST=LOBBY - OTHER_FL=BUILDING STORY 2_SCH=C,Mixing/Well-Stirred
RoomAir Model,ALL_ST=OFFICE ENCLOSED <= 25 M2_FL=BUILDING STORY 1_SCH=A,Mixing/Well-Stirred
RoomAir Model,ALL_ST=OFFICE ENCLOSED <= 25 M2_FL=BUILDING STORY 2_SCH=A,Mixing/Well-Stirred
RoomAir Model,WET_ST=WASHROOM - OTHER-SCH-D_FL=BUILDING STORY 1_SCHD,Mixing/Well-Stirred
RoomAir Model,WET_ST=WASHROOM - OTHER-SCH-D_FL=BUILDING STORY 2_SCHD,Mixing/Well-Stirred
RoomAir Model,WILD_ST=CORRIDOR/TRANSITION AREA OTHER-SCH-D_FL=BUILDING STORY 1_SCH=D,Mixing/Well-Stirred
RoomAir Model,WILD_ST=CORRIDOR/TRANSITION AREA OTHER-SCH-D_FL=BUILDING STORY 1_SCH=D 1,Mixing/Well-Stirred
RoomAir Model,WILD_ST=CORRIDOR/TRANSITION AREA OTHER-SCH-D_FL=BUILDING STORY 2_SCH=D,Mixing/Well-Stirred
RoomAir Model,WILD_ST=CORRIDOR/TRANSITION AREA OTHER-SCH-D_FL=BUILDING STORY 2_SCH=D 1,Mixing/Well-Stirred
RoomAir Model,WILD_ST=ELECTRICAL/MECHANICAL ROOM-SCH-D_FL=BUILDING STORY 1_SCH=D,Mixing/Well-Stirred
RoomAir Model,WILD_ST=ELECTRICAL/MECHANICAL ROOM-SCH-D_FL=BUILDING STORY 2_SCH=D,Mixing/Well-Stirred
! <AirflowNetwork Model:Control>, No Multizone or Distribution/Multizone with Distribution/Multizone without Distribution/Multizone with Distribution only during Fan Operation
AirflowNetwork Model:Control,NoMultizoneOrDistribution
! <Zone Volume Capacitance Multiplier>, Sensible Heat Capacity Multiplier, Moisture Capacity Multiplier, Carbon Dioxide Capacity Multiplier, Generic Contaminant Capacity Multiplier
Zone Volume Capacitance Multiplier,   1.000 ,   1.000,   1.000,   1.000
! <Load Timesteps in Zone Design Calculation Averaging Window>, Value
 Load Timesteps in Zone Design Calculation Averaging Window,    4
! <Heating Sizing Factor Information>, Sizing Factor ID, Value
 Heating Sizing Factor Information, Global,   1.3000    
 Heating Sizing Factor Information, Zone ALL_ST=AUDIENCE SEATING AREA PERMANENT - AUDITORIUM_FL=BUILDING STORY 1_SCH=C,   1.3000    
 Heating Sizing Factor Information, Zone ALL_ST=CLASSROOM/LECTURE HALL/TRAINING ROOM OTHER_FL=BUILDING STORY 1_SCH=D,   1.3000    
 Heating Sizing Factor Information, Zone ALL_ST=CLASSROOM/LECTURE HALL/TRAINING ROOM OTHER_FL=BUILDING STORY 1_SCH=D 1,   1.3000    
 Heating Sizing Factor Information, Zone ALL_ST=CLASSROOM/LECTURE HALL/TRAINING ROOM OTHER_FL=BUILDING STORY 1_SCH=D 2,   1.3000    
 Heating Sizing Factor Information, Zone ALL_ST=CLASSROOM/LECTURE HALL/TRAINING ROOM OTHER_FL=BUILDING STORY 1_SCH=D 3,   1.3000    
 Heating Sizing Factor Information, Zone ALL_ST=CLASSROOM/LECTURE HALL/TRAINING ROOM OTHER_FL=BUILDING STORY 2_SCH=D,   1.3000    
 Heating Sizing Factor Information, Zone ALL_ST=CLASSROOM/LECTURE HALL/TRAINING ROOM OTHER_FL=BUILDING STORY 2_SCH=D 1,   1.3000    
 Heating Sizing Factor Information, Zone ALL_ST=CLASSROOM/LECTURE HALL/TRAINING ROOM OTHER_FL=BUILDING STORY 2_SCH=D 2,   1.3000    
 Heating Sizing Factor Information, Zone ALL_ST=CLASSROOM/LECTURE HALL/TRAINING ROOM OTHER_FL=BUILDING STORY 2_SCH=D 3,   1.3000    
 Heating Sizing Factor Information, Zone ALL_ST=CONFERENCE/MEETING/MULTI-PURPOSE ROOM_FL=BUILDING STORY 1_SCH=C,   1.3000    
 Heating Sizing Factor Information, Zone ALL_ST=FOOD PREPARATION AREA_FL=BUILDING STORY 1_SCH=B,   1.3000    
 Heating Sizing Factor Information, Zone ALL_ST=GYMNASIUM/FITNESS CENTRE PLAYING AREA_FL=BUILDING STORY 1_SCH=B,   1.3000    
 Heating Sizing Factor Information, Zone ALL_ST=GYMNASIUM/FITNESS CENTRE PLAYING AREA_FL=BUILDING STORY 1_SCH=B 1,   1.3000    
 Heating Sizing Factor Information, Zone ALL_ST=LIBRARY READING AREA_FL=BUILDING STORY 2_SCH=C,   1.3000    
 Heating Sizing Factor Information, Zone ALL_ST=LOBBY - OTHER_FL=BUILDING STORY 1_SCH=C,   1.3000    
 Heating Sizing Factor Information, Zone ALL_ST=LOBBY - OTHER_FL=BUILDING STORY 2_SCH=C,   1.3000    
 Heating Sizing Factor Information, Zone ALL_ST=OFFICE ENCLOSED <= 25 M2_FL=BUILDING STORY 1_SCH=A,   1.3000    
 Heating Sizing Factor Information, Zone ALL_ST=OFFICE ENCLOSED <= 25 M2_FL=BUILDING STORY 2_SCH=A,   1.3000    
 Heating Sizing Factor Information, Zone WET_ST=WASHROOM - OTHER-SCH-D_FL=BUILDING STORY 1_SCHD,   1.3000    
 Heating Sizing Factor Information, Zone WET_ST=WASHROOM - OTHER-SCH-D_FL=BUILDING STORY 2_SCHD,   1.3000    
 Heating Sizing Factor Information, Zone WILD_ST=CORRIDOR/TRANSITION AREA OTHER-SCH-D_FL=BUILDING STORY 1_SCH=D,   1.3000    
 Heating Sizing Factor Information, Zone WILD_ST=CORRIDOR/TRANSITION AREA OTHER-SCH-D_FL=BUILDING STORY 1_SCH=D 1,   1.3000    
 Heating Sizing Factor Information, Zone WILD_ST=CORRIDOR/TRANSITION AREA OTHER-SCH-D_FL=BUILDING STORY 2_SCH=D,   1.3000    
 Heating Sizing Factor Information, Zone WILD_ST=CORRIDOR/TRANSITION AREA OTHER-SCH-D_FL=BUILDING STORY 2_SCH=D 1,   1.3000    
 Heating Sizing Factor Information, Zone WILD_ST=ELECTRICAL/MECHANICAL ROOM-SCH-D_FL=BUILDING STORY 1_SCH=D,   1.3000    
 Heating Sizing Factor Information, Zone WILD_ST=ELECTRICAL/MECHANICAL ROOM-SCH-D_FL=BUILDING STORY 2_SCH=D,   1.3000    
! <Cooling Sizing Factor Information>, Sizing Factor ID, Value
 Cooling Sizing Factor Information, Global,   1.1000    
 Cooling Sizing Factor Information, Zone ALL_ST=AUDIENCE SEATING AREA PERMANENT - AUDITORIUM_FL=BUILDING STORY 1_SCH=C,   1.1000    
 Cooling Sizing Factor Information, Zone ALL_ST=CLASSROOM/LECTURE HALL/TRAINING ROOM OTHER_FL=BUILDING STORY 1_SCH=D,   1.1000    
 Cooling Sizing Factor Information, Zone ALL_ST=CLASSROOM/LECTURE HALL/TRAINING ROOM OTHER_FL=BUILDING STORY 1_SCH=D 1,   1.1000    
 Cooling Sizing Factor Information, Zone ALL_ST=CLASSROOM/LECTURE HALL/TRAINING ROOM OTHER_FL=BUILDING STORY 1_SCH=D 2,   1.1000    
 Cooling Sizing Factor Information, Zone ALL_ST=CLASSROOM/LECTURE HALL/TRAINING ROOM OTHER_FL=BUILDING STORY 1_SCH=D 3,   1.1000    
 Cooling Sizing Factor Information, Zone ALL_ST=CLASSROOM/LECTURE HALL/TRAINING ROOM OTHER_FL=BUILDING STORY 2_SCH=D,   1.1000    
 Cooling Sizing Factor Information, Zone ALL_ST=CLASSROOM/LECTURE HALL/TRAINING ROOM OTHER_FL=BUILDING STORY 2_SCH=D 1,   1.1000    
 Cooling Sizing Factor Information, Zone ALL_ST=CLASSROOM/LECTURE HALL/TRAINING ROOM OTHER_FL=BUILDING STORY 2_SCH=D 2,   1.1000    
 Cooling Sizing Factor Information, Zone ALL_ST=CLASSROOM/LECTURE HALL/TRAINING ROOM OTHER_FL=BUILDING STORY 2_SCH=D 3,   1.1000    
 Cooling Sizing Factor Information, Zone ALL_ST=CONFERENCE/MEETING/MULTI-PURPOSE ROOM_FL=BUILDING STORY 1_SCH=C,   1.1000    
 Cooling Sizing Factor Information, Zone ALL_ST=FOOD PREPARATION AREA_FL=BUILDING STORY 1_SCH=B,   1.1000    
 Cooling Sizing Factor Information, Zone ALL_ST=GYMNASIUM/FITNESS CENTRE PLAYING AREA_FL=BUILDING STORY 1_SCH=B,   1.1000    
 Cooling Sizing Factor Information, Zone ALL_ST=GYMNASIUM/FITNESS CENTRE PLAYING AREA_FL=BUILDING STORY 1_SCH=B 1,   1.1000    
 Cooling Sizing Factor Information, Zone ALL_ST=LIBRARY READING AREA_FL=BUILDING STORY 2_SCH=C,   1.1000    
 Cooling Sizing Factor Information, Zone ALL_ST=LOBBY - OTHER_FL=BUILDING STORY 1_SCH=C,   1.1000    
 Cooling Sizing Factor Information, Zone ALL_ST=LOBBY - OTHER_FL=BUILDING STORY 2_SCH=C,   1.1000    
 Cooling Sizing Factor Information, Zone ALL_ST=OFFICE ENCLOSED <= 25 M2_FL=BUILDING STORY 1_SCH=A,   1.1000    
 Cooling Sizing Factor Information, Zone ALL_ST=OFFICE ENCLOSED <= 25 M2_FL=BUILDING STORY 2_SCH=A,   1.1000    
 Cooling Sizing Factor Information, Zone WET_ST=WASHROOM - OTHER-SCH-D_FL=BUILDING STORY 1_SCHD,   1.1000    
 Cooling Sizing Factor Information, Zone WET_ST=WASHROOM - OTHER-SCH-D_FL=BUILDING STORY 2_SCHD,   1.1000    
 Cooling Sizing Factor Information, Zone WILD_ST=CORRIDOR/TRANSITION AREA OTHER-SCH-D_FL=BUILDING STORY 1_SCH=D,   1.1000    
 Cooling Sizing Factor Information, Zone WILD_ST=CORRIDOR/TRANSITION AREA OTHER-SCH-D_FL=BUILDING STORY 1_SCH=D 1,   1.1000    
 Cooling Sizing Factor Information, Zone WILD_ST=CORRIDOR/TRANSITION AREA OTHER-SCH-D_FL=BUILDING STORY 2_SCH=D,   1.1000    
 Cooling Sizing Factor Information, Zone WILD_ST=CORRIDOR/TRANSITION AREA OTHER-SCH-D_FL=BUILDING STORY 2_SCH=D 1,   1.1000    
 Cooling Sizing Factor Information, Zone WILD_ST=ELECTRICAL/MECHANICAL ROOM-SCH-D_FL=BUILDING STORY 1_SCH=D,   1.1000    
 Cooling Sizing Factor Information, Zone WILD_ST=ELECTRICAL/MECHANICAL ROOM-SCH-D_FL=BUILDING STORY 2_SCH=D,   1.1000    
! <Zone Sizing Information>, Zone Name, Load Type, Calc Des Load {W}, User Des Load {W}, Calc Des Air Flow Rate {m3/s}, User Des Air Flow Rate {m3/s}, Design Day Name, Date/Time of Peak, Temperature at Peak {C}, Humidity Ratio at Peak {kgWater/kgDryAir}, Floor Area {m2}, # Occupants, Calc Outdoor Air Flow Rate {m3/s}, Calc DOAS Heat Addition Rate {W}
 Zone Sizing Information, ALL_ST=AUDIENCE SEATING AREA PERMANENT - AUDITORIUM_FL=BUILDING STORY 1_SCH=C, Cooling, 16940.24463, 18634.26909, 1.25880, 4.06542, MONTREAL-TRUDEAU INTL AP ANN CLG .4% CONDNS DB=>MWB, 7/21 13:30:00, 29.77750, 1.35428E-002, 988.00000, 197.67181, 4.06542, 0.00000
 Zone Sizing Information, ALL_ST=AUDIENCE SEATING AREA PERMANENT - AUDITORIUM_FL=BUILDING STORY 1_SCH=C, Heating, 18841.77418, 24494.30644, 0.71430, 4.06542, MONTREAL-TRUDEAU INTL AP ANN HTG 99.6% CONDNS DB, 1/21 09:00:00, -23.10000, 4.71376E-004, 988.00000, 197.67181, 4.06542, 0.00000
 Zone Sizing Information, ALL_ST=CLASSROOM/LECTURE HALL/TRAINING ROOM OTHER_FL=BUILDING STORY 1_SCH=D, Cooling, 8914.04959, 9805.45455, 0.66249, 0.82680, MONTREAL-TRUDEAU INTL AP ANN CLG .4% CONDNS DB=>MWB, 7/21 16:00:00, 29.46600, 1.35428E-002, 297.00000, 39.61439, 0.82680, 0.00000
 Zone Sizing Information, ALL_ST=CLASSROOM/LECTURE HALL/TRAINING ROOM OTHER_FL=BUILDING STORY 1_SCH=D, Heating, 6319.03359, 8214.74366, 0.24291, 0.82680, MONTREAL-TRUDEAU INTL AP ANN HTG 99.6% CONDNS DB, 1/21 09:00:00, -23.10000, 4.71376E-004, 297.00000, 39.61439, 0.82680, 0.00000
 Zone Sizing Information, ALL_ST=CLASSROOM/LECTURE HALL/TRAINING ROOM OTHER_FL=BUILDING STORY 1_SCH=D 1, Cooling, 19430.01457, 21373.01602, 1.44409, 3.98368, MONTREAL-TRUDEAU INTL AP ANN CLG .4% CONDNS DB=>MWB, 7/21 16:00:00, 29.46600, 1.35428E-002, 1431.00000, 190.86934, 3.98368, 0.00000
 Zone Sizing Information, ALL_ST=CLASSROOM/LECTURE HALL/TRAINING ROOM OTHER_FL=BUILDING STORY 1_SCH=D 1, Heating, 19863.52369, 25822.58080, 0.75960, 3.98368, MONTREAL-TRUDEAU INTL AP ANN HTG 99.6% CONDNS DB, 1/21 09:00:00, -23.10000, 4.71376E-004, 1431.00000, 190.86934, 3.98368, 0.00000
 Zone Sizing Information, ALL_ST=CLASSROOM/LECTURE HALL/TRAINING ROOM OTHER_FL=BUILDING STORY 1_SCH=D 2, Cooling, 19729.89769, 21702.88746, 1.46644, 3.98368, MONTREAL-TRUDEAU INTL AP ANN CLG .4% CONDNS DB=>MWB, 7/21 12:00:00, 28.84300, 1.35428E-002, 1431.00000, 190.86934, 3.98368, 0.00000
 Zone Sizing Information, ALL_ST=CLASSROOM/LECTURE HALL/TRAINING ROOM OTHER_FL=BUILDING STORY 1_SCH=D 2, Heating, 19802.05125, 25742.66662, 0.75721, 3.98368, MONTREAL-TRUDEAU INTL AP ANN HTG 99.6% CONDNS DB, 1/21 09:00:00, -23.10000, 4.71376E-004, 1431.00000, 190.86934, 3.98368, 0.00000
 Zone Sizing Information, ALL_ST=CLASSROOM/LECTURE HALL/TRAINING ROOM OTHER_FL=BUILDING STORY 1_SCH=D 3, Cooling, 8908.97983, 9799.87781, 0.66212, 0.82680, MONTREAL-TRUDEAU INTL AP ANN CLG .4% CONDNS DB=>MWB, 7/21 16:00:00, 29.46600, 1.35428E-002, 297.00000, 39.61439, 0.82680, 0.00000
 Zone Sizing Information, ALL_ST=CLASSROOM/LECTURE HALL/TRAINING ROOM OTHER_FL=BUILDING STORY 1_SCH=D 3, Heating, 6328.54803, 8227.11243, 0.24328, 0.82680, MONTREAL-TRUDEAU INTL AP ANN HTG 99.6% CONDNS DB, 1/21 09:00:00, -23.10000, 4.71376E-004, 297.00000, 39.61439, 0.82680, 0.00000
 Zone Sizing Information, ALL_ST=CLASSROOM/LECTURE HALL/TRAINING ROOM OTHER_FL=BUILDING STORY 2_SCH=D, Cooling, 11014.08547, 12115.49402, 0.81854, 0.90039, MONTREAL-TRUDEAU INTL AP ANN CLG .4% CONDNS DB=>MWB, 7/21 16:00:00, 29.46600, 1.35428E-002, 297.00000, 39.61439, 0.82680, 0.00000
 Zone Sizing Information, ALL_ST=CLASSROOM/LECTURE HALL/TRAINING ROOM OTHER_FL=BUILDING STORY 2_SCH=D, Heating, 7627.25609, 9915.43292, 0.29353, 0.82680, MONTREAL-TRUDEAU INTL AP ANN HTG 99.6% CONDNS DB, 1/21 09:00:00, -23.10000, 4.71376E-004, 297.00000, 39.61439, 0.82680, 0.00000
 Zone Sizing Information, ALL_ST=CLASSROOM/LECTURE HALL/TRAINING ROOM OTHER_FL=BUILDING STORY 2_SCH=D 1, Cooling, 29028.53903, 31931.39293, 2.15760, 3.98368, MONTREAL-TRUDEAU INTL AP ANN CLG .4% CONDNS DB=>MWB, 7/21 12:15:00, 29.02100, 1.35428E-002, 1431.00000, 190.86934, 3.98368, 0.00000
 Zone Sizing Information, ALL_ST=CLASSROOM/LECTURE HALL/TRAINING ROOM OTHER_FL=BUILDING STORY 2_SCH=D 1, Heating, 26207.89541, 34070.26403, 1.00513, 3.98368, MONTREAL-TRUDEAU INTL AP ANN HTG 99.6% CONDNS DB, 1/21 09:00:00, -23.10000, 4.71376E-004, 1431.00000, 190.86934, 3.98368, 0.00000
 Zone Sizing Information, ALL_ST=CLASSROOM/LECTURE HALL/TRAINING ROOM OTHER_FL=BUILDING STORY 2_SCH=D 2, Cooling, 28335.31475, 31168.84622, 2.10605, 3.98368, MONTREAL-TRUDEAU INTL AP ANN CLG .4% CONDNS DB=>MWB, 7/21 12:00:00, 28.84300, 1.35428E-002, 1431.00000, 190.86934, 3.98368, 0.00000
 Zone Sizing Information, ALL_ST=CLASSROOM/LECTURE HALL/TRAINING ROOM OTHER_FL=BUILDING STORY 2_SCH=D 2, Heating, 26256.67249, 34133.67424, 1.00702, 3.98368, MONTREAL-TRUDEAU INTL AP ANN HTG 99.6% CONDNS DB, 1/21 09:00:00, -23.10000, 4.71376E-004, 1431.00000, 190.86934, 3.98368, 0.00000
 Zone Sizing Information, ALL_ST=CLASSROOM/LECTURE HALL/TRAINING ROOM OTHER_FL=BUILDING STORY 2_SCH=D 3, Cooling, 11011.69438, 12112.86382, 0.81836, 0.90020, MONTREAL-TRUDEAU INTL AP ANN CLG .4% CONDNS DB=>MWB, 7/21 16:00:00, 29.46600, 1.35428E-002, 297.00000, 39.61439, 0.82680, 0.00000
 Zone Sizing Information, ALL_ST=CLASSROOM/LECTURE HALL/TRAINING ROOM OTHER_FL=BUILDING STORY 2_SCH=D 3, Heating, 7620.15214, 9906.19778, 0.29326, 0.82680, MONTREAL-TRUDEAU INTL AP ANN HTG 99.6% CONDNS DB, 1/21 09:00:00, -23.10000, 4.71376E-004, 297.00000, 39.61439, 0.82680, 0.00000
 Zone Sizing Information, ALL_ST=CONFERENCE/MEETING/MULTI-PURPOSE ROOM_FL=BUILDING STORY 1_SCH=C, Cooling, 10906.40514, 11997.04565, 0.81077, 0.98268, MONTREAL-TRUDEAU INTL AP ANN CLG .4% CONDNS DB=>MWB, 7/21 17:00:00, 28.75400, 1.35428E-002, 624.00000, 124.84536, 0.98268, 0.00000
 Zone Sizing Information, ALL_ST=CONFERENCE/MEETING/MULTI-PURPOSE ROOM_FL=BUILDING STORY 1_SCH=C, Heating, 7055.70554, 9172.41720, 0.26883, 0.98268, MONTREAL-TRUDEAU INTL AP ANN HTG 99.6% CONDNS DB, 1/21 09:00:00, -23.10000, 4.71376E-004, 624.00000, 124.84536, 0.98268, 0.00000
 Zone Sizing Information, ALL_ST=FOOD PREPARATION AREA_FL=BUILDING STORY 1_SCH=B, Cooling, 4311.82156, 4743.00371, 0.30386, 0.33425, MONTREAL-TRUDEAU INTL AP ANN CLG .4% CONDNS DB=>MWB, 7/21 09:00:00, 25.10500, 1.35428E-002, 216.00000, 10.80392, 0.29627, 0.00000
 Zone Sizing Information, ALL_ST=FOOD PREPARATION AREA_FL=BUILDING STORY 1_SCH=B, Heating, 1805.83384, 2347.58400, 6.83505E-002, 0.29627, MONTREAL-TRUDEAU INTL AP ANN HTG 99.6% CONDNS DB, 1/21 10:00:00, -23.10000, 4.71376E-004, 216.00000, 10.80392, 0.29627, 0.00000
 Zone Sizing Information, ALL_ST=GYMNASIUM/FITNESS CENTRE PLAYING AREA_FL=BUILDING STORY 1_SCH=B, Cooling, 37583.99906, 41342.39897, 2.79284, 3.07212, MONTREAL-TRUDEAU INTL AP ANN CLG .4% CONDNS DB=>MWB, 7/21 13:00:00, 29.55500, 1.35428E-002, 1976.00000, 395.34362, 3.01142, 0.00000
 Zone Sizing Information, ALL_ST=GYMNASIUM/FITNESS CENTRE PLAYING AREA_FL=BUILDING STORY 1_SCH=B, Heating, 25222.50881, 32789.26145, 0.92501, 3.01142, MONTREAL-TRUDEAU INTL AP ANN HTG 99.6% CONDNS DB, 1/21 09:30:00, -23.10000, 4.71376E-004, 1976.00000, 395.34362, 3.01142, 0.00000
 Zone Sizing Information, ALL_ST=GYMNASIUM/FITNESS CENTRE PLAYING AREA_FL=BUILDING STORY 1_SCH=B 1, Cooling, 75268.05781, 82794.86359, 4.70236, 5.17260, MONTREAL-TRUDEAU INTL AP ANN CLG .4% CONDNS DB=>MWB, 7/21 09:00:00, 25.10500, 1.35428E-002, 1248.00000, 249.69071, 1.90195, 0.00000
 Zone Sizing Information, ALL_ST=GYMNASIUM/FITNESS CENTRE PLAYING AREA_FL=BUILDING STORY 1_SCH=B 1, Heating, 24709.36598, 32122.17578, 0.91155, 1.90195, MONTREAL-TRUDEAU INTL AP ANN HTG 99.6% CONDNS DB, 1/21 09:30:00, -23.10000, 4.71376E-004, 1248.00000, 249.69071, 1.90195, 0.00000
 Zone Sizing Information, ALL_ST=LIBRARY READING AREA_FL=BUILDING STORY 2_SCH=C, Cooling, 16486.64722, 18135.31195, 1.14200, 1.25620, MONTREAL-TRUDEAU INTL AP ANN CLG .4% CONDNS DB=>MWB, 7/21 08:00:00, 23.41400, 1.35428E-002, 840.00000, 42.01526, 0.72542, 0.00000
 Zone Sizing Information, ALL_ST=LIBRARY READING AREA_FL=BUILDING STORY 2_SCH=C, Heating, 12106.08420, 15737.90946, 0.46271, 0.72542, MONTREAL-TRUDEAU INTL AP ANN HTG 99.6% CONDNS DB, 1/21 09:00:00, -23.10000, 4.71376E-004, 840.00000, 42.01526, 0.72542, 0.00000
 Zone Sizing Information, ALL_ST=LOBBY - OTHER_FL=BUILDING STORY 1_SCH=C, Cooling, 2264.27287, 2490.70016, 0.16825, 0.86411, MONTREAL-TRUDEAU INTL AP ANN CLG .4% CONDNS DB=>MWB, 7/21 17:00:00, 28.75400, 1.35428E-002, 210.00000, 21.00763, 0.86411, 0.00000
 Zone Sizing Information, ALL_ST=LOBBY - OTHER_FL=BUILDING STORY 1_SCH=C, Heating, 2632.17680, 3421.82984, 0.10049, 0.86411, MONTREAL-TRUDEAU INTL AP ANN HTG 99.6% CONDNS DB, 1/21 09:00:00, -23.10000, 4.71376E-004, 210.00000, 21.00763, 0.86411, 0.00000
 Zone Sizing Information, ALL_ST=LOBBY - OTHER_FL=BUILDING STORY 2_SCH=C, Cooling, 3283.93788, 3612.33167, 0.24400, 0.86411, MONTREAL-TRUDEAU INTL AP ANN CLG .4% CONDNS DB=>MWB, 7/21 13:15:00, 29.66625, 1.35428E-002, 210.00000, 21.00763, 0.86411, 0.00000
 Zone Sizing Information, ALL_ST=LOBBY - OTHER_FL=BUILDING STORY 2_SCH=C, Heating, 3415.41360, 4440.03768, 0.13080, 0.86411, MONTREAL-TRUDEAU INTL AP ANN HTG 99.6% CONDNS DB, 1/21 09:00:00, -23.10000, 4.71376E-004, 210.00000, 21.00763, 0.86411, 0.00000
 Zone Sizing Information, ALL_ST=OFFICE ENCLOSED <= 25 M2_FL=BUILDING STORY 1_SCH=A, Cooling, 6686.98599, 7355.68459, 0.49677, 0.54645, MONTREAL-TRUDEAU INTL AP ANN CLG .4% CONDNS DB=>MWB, 7/21 10:00:00, 26.61800, 1.35428E-002, 532.00000, 26.60967, 0.22431, 0.00000
 Zone Sizing Information, ALL_ST=OFFICE ENCLOSED <= 25 M2_FL=BUILDING STORY 1_SCH=A, Heating, 7216.98495, 9382.08044, 0.27585, 0.35861, MONTREAL-TRUDEAU INTL AP ANN HTG 99.6% CONDNS DB, 1/21 08:00:00, -23.10000, 4.71376E-004, 532.00000, 26.60967, 0.22431, 0.00000
 Zone Sizing Information, ALL_ST=OFFICE ENCLOSED <= 25 M2_FL=BUILDING STORY 2_SCH=A, Cooling, 9475.64660, 10423.21126, 0.70398, 0.77437, MONTREAL-TRUDEAU INTL AP ANN CLG .4% CONDNS DB=>MWB, 7/21 10:00:00, 26.61800, 1.35428E-002, 532.00000, 26.60967, 0.22431, 0.00000
 Zone Sizing Information, ALL_ST=OFFICE ENCLOSED <= 25 M2_FL=BUILDING STORY 2_SCH=A, Heating, 9304.89607, 12096.36489, 0.35666, 0.46365, MONTREAL-TRUDEAU INTL AP ANN HTG 99.6% CONDNS DB, 1/21 08:00:00, -23.10000, 4.71376E-004, 532.00000, 26.60967, 0.22431, 0.00000
 Zone Sizing Information, WET_ST=WASHROOM - OTHER-SCH-D_FL=BUILDING STORY 1_SCHD, Cooling, 1560.87917, 1716.96708, 0.11596, 0.12755, MONTREAL-TRUDEAU INTL AP ANN CLG .4% CONDNS DB=>MWB, 7/21 16:00:00, 29.46600, 1.35428E-002, 210.00000, 7.00254, 6.40080E-002, 0.00000
 Zone Sizing Information, WET_ST=WASHROOM - OTHER-SCH-D_FL=BUILDING STORY 1_SCHD, Heating, 3200.81518, 4161.05973, 0.12254, 0.15930, MONTREAL-TRUDEAU INTL AP ANN HTG 99.6% CONDNS DB, 1/21 09:00:00, -23.10000, 4.71376E-004, 210.00000, 7.00254, 6.40080E-002, 0.00000
 Zone Sizing Information, WET_ST=WASHROOM - OTHER-SCH-D_FL=BUILDING STORY 2_SCHD, Cooling, 2572.32301, 2829.55531, 0.19110, 0.21021, MONTREAL-TRUDEAU INTL AP ANN CLG .4% CONDNS DB=>MWB, 7/21 13:45:00, 29.88875, 1.35428E-002, 210.00000, 7.00254, 6.40080E-002, 0.00000
 Zone Sizing Information, WET_ST=WASHROOM - OTHER-SCH-D_FL=BUILDING STORY 2_SCHD, Heating, 4006.84287, 5208.89573, 0.15374, 0.19986, MONTREAL-TRUDEAU INTL AP ANN HTG 99.6% CONDNS DB, 1/21 09:00:00, -23.10000, 4.71376E-004, 210.00000, 7.00254, 6.40080E-002, 0.00000
[...]
 DX Cooling Coil Standard Rating Information, Coil:Cooling:DX:SingleSpeed, COIL COOLING DX SINGLE SPEED 20 119KBTU/HR 9.44EER, 23636.3, 2.88, 9.83, 10.40, 10.16
 Component Sizing Information, Coil:Heating:Electric, COIL HEATING ELECTRIC 20, Design Size Nominal Capacity [W], 78270.81068
 Component Sizing Information, Fan:VariableVolume, FAN VARIABLE VOLUME 6, Design Size Maximum Flow Rate [m3/s], 0.98268
 Component Sizing Information, HeatExchanger:AirToAir:SensibleAndLatent, SYS_3_PSZ ALL_ST=FOOD PREPARATION AREA_FL=BUILDING STORY 1_SCH=B ERV, Design Size Nominal Supply Air Flow Rate [m3/s], 0.29627
 Component Sizing Information, Coil:Cooling:DX:SingleSpeed, COIL COOLING DX SINGLE SPEED 18 43KBTU/HR 14.0SEER, Design Size Rated Air Flow Rate [m3/s], 0.33425
 Component Sizing Information, Coil:Cooling:DX:SingleSpeed, COIL COOLING DX SINGLE SPEED 18 43KBTU/HR 14.0SEER, Design Size Gross Rated Total Cooling Capacity [W], 8300.12537
 Component Sizing Information, Coil:Cooling:DX:SingleSpeed, COIL COOLING DX SINGLE SPEED 18 43KBTU/HR 14.0SEER, Design Size Gross Rated Sensible Heat Ratio, 0.69808
 DX Cooling Coil Standard Rating Information, Coil:Cooling:DX:SingleSpeed, COIL COOLING DX SINGLE SPEED 18 43KBTU/HR 14.0SEER, 8039.6, 3.31, 11.30, 11.94, 11.53
 Component Sizing Information, Coil:Heating:Electric, COIL HEATING ELECTRIC 18, Design Size Nominal Capacity [W], 24562.04705
 Component Sizing Information, Fan:VariableVolume, FAN VARIABLE VOLUME 2, Design Size Maximum Flow Rate [m3/s], 0.33425
 Component Sizing Information, HeatExchanger:AirToAir:SensibleAndLatent, SYS_3_PSZ ALL_ST=GYMNASIUM/FITNESS CENTRE PLAYING AREA_FL=BUILDING STORY 1_SCH=B ERV, Design Size Nominal Supply Air Flow Rate [m3/s], 3.01142
 Component Sizing Information, Coil:Cooling:DX:SingleSpeed, COIL COOLING DX SINGLE SPEED 15 464KBTU/HR 8.39EER, Design Size Rated Air Flow Rate [m3/s], 3.07212
 Component Sizing Information, Coil:Cooling:DX:SingleSpeed, COIL COOLING DX SINGLE SPEED 15 464KBTU/HR 8.39EER, Design Size Gross Rated Total Cooling Capacity [W], 76288.08764
 Component Sizing Information, Coil:Cooling:DX:SingleSpeed, COIL COOLING DX SINGLE SPEED 15 464KBTU/HR 8.39EER, Design Size Gross Rated Sensible Heat Ratio, 0.69808
 DX Cooling Coil Standard Rating Information, Coil:Cooling:DX:SingleSpeed, COIL COOLING DX SINGLE SPEED 15 464KBTU/HR 8.39EER, 73893.9, 2.77, 9.46, 10.01, 9.80
 Component Sizing Information, Coil:Heating:Electric, COIL HEATING ELECTRIC 15, Design Size Nominal Capacity [W], 241476.50906
 Component Sizing Information, Fan:VariableVolume, FAN VARIABLE VOLUME 3, Design Size Maximum Flow Rate [m3/s], 3.07212
 Component Sizing Information, HeatExchanger:AirToAir:SensibleAndLatent, SYS_3_PSZ ALL_ST=GYMNASIUM/FITNESS CENTRE PLAYING AREA_FL=BUILDING STORY 1_SCH=B 1 ERV, Design Size Nominal Supply Air Flow Rate [m3/s], 1.90195
 Component Sizing Information, Coil:Cooling:DX:SingleSpeed, COIL COOLING DX SINGLE SPEED 17 510KBTU/HR 8.39EER, Design Size Rated Air Flow Rate [m3/s], 5.17260
 Component Sizing Information, Coil:Cooling:DX:SingleSpeed, COIL COOLING DX SINGLE SPEED 17 510KBTU/HR 8.39EER, Design Size Gross Rated Total Cooling Capacity [W], 104017.34231
 Component Sizing Information, Coil:Cooling:DX:SingleSpeed, COIL COOLING DX SINGLE SPEED 17 510KBTU/HR 8.39EER, Design Size Gross Rated Sensible Heat Ratio, 0.77065
 DX Cooling Coil Standard Rating Information, Coil:Cooling:DX:SingleSpeed, COIL COOLING DX SINGLE SPEED 17 510KBTU/HR 8.39EER, 99992.1, 2.72, 9.27, 9.80, 9.45
 Component Sizing Information, Coil:Heating:Electric, COIL HEATING ELECTRIC 17, Design Size Nominal Capacity [W], 238479.88066
 Component Sizing Information, Fan:VariableVolume, FAN VARIABLE VOLUME 10, Design Size Maximum Flow Rate [m3/s], 5.17260
 Component Sizing Information, HeatExchanger:AirToAir:SensibleAndLatent, SYS_3_PSZ ALL_ST=LIBRARY READING AREA_FL=BUILDING STORY 2_SCH=C ERV, Design Size Nominal Supply Air Flow Rate [m3/s], 0.72542
 Component Sizing Information, Coil:Cooling:DX:SingleSpeed, COIL COOLING DX SINGLE SPEED 13 145KBTU/HR 9.26EER, Design Size Rated Air Flow Rate [m3/s], 1.25620
 Component Sizing Information, Coil:Cooling:DX:SingleSpeed, COIL COOLING DX SINGLE SPEED 13 145KBTU/HR 9.26EER, Design Size Gross Rated Total Cooling Capacity [W], 26592.30795
 Component Sizing Information, Coil:Cooling:DX:SingleSpeed, COIL COOLING DX SINGLE SPEED 13 145KBTU/HR 9.26EER, Design Size Gross Rated Sensible Heat Ratio, 0.75050
 DX Cooling Coil Standard Rating Information, Coil:Cooling:DX:SingleSpeed, COIL COOLING DX SINGLE SPEED 13 145KBTU/HR 9.26EER, 25614.4, 2.79, 9.51, 10.05, 9.72
 Component Sizing Information, Coil:Heating:Electric, COIL HEATING ELECTRIC 13, Design Size Nominal Capacity [W], 71259.74286
 Component Sizing Information, Fan:VariableVolume, FAN VARIABLE VOLUME 8, Design Size Maximum Flow Rate [m3/s], 1.25620
 Component Sizing Information, HeatExchanger:AirToAir:SensibleAndLatent, SYS_3_PSZ ALL_ST=LOBBY - OTHER_FL=BUILDING STORY 1_SCH=C ERV, Design Size Nominal Supply Air Flow Rate [m3/s], 0.86411
 Component Sizing Information, Coil:Cooling:DX:SingleSpeed, COIL COOLING DX SINGLE SPEED 3 73KBTU/HR 9.44EER, Design Size Rated Air Flow Rate [m3/s], 0.86411
 Component Sizing Information, Coil:Cooling:DX:SingleSpeed, COIL COOLING DX SINGLE SPEED 3 73KBTU/HR 9.44EER, Design Size Gross Rated Total Cooling Capacity [W], 21457.85945
 Component Sizing Information, Coil:Cooling:DX:SingleSpeed, COIL COOLING DX SINGLE SPEED 3 73KBTU/HR 9.44EER, Design Size Gross Rated Sensible Heat Ratio, 0.69808
 DX Cooling Coil Standard Rating Information, Coil:Cooling:DX:SingleSpeed, COIL COOLING DX SINGLE SPEED 3 73KBTU/HR 9.44EER, 20784.4, 2.86, 9.74, 10.30, 10.07
 Component Sizing Information, Coil:Heating:Electric, COIL HEATING ELECTRIC 3, Design Size Nominal Capacity [W], 68826.84500
 Component Sizing Information, Fan:VariableVolume, FAN VARIABLE VOLUME 13, Design Size Maximum Flow Rate [m3/s], 0.86411
 Component Sizing Information, HeatExchanger:AirToAir:SensibleAndLatent, SYS_3_PSZ ALL_ST=LOBBY - OTHER_FL=BUILDING STORY 2_SCH=C ERV, Design Size Nominal Supply Air Flow Rate [m3/s], 0.86411
 Component Sizing Information, Coil:Cooling:DX:SingleSpeed, COIL COOLING DX SINGLE SPEED 4 73KBTU/HR 9.44EER, Design Size Rated Air Flow Rate [m3/s], 0.86411
 Component Sizing Information, Coil:Cooling:DX:SingleSpeed, COIL COOLING DX SINGLE SPEED 4 73KBTU/HR 9.44EER, Design Size Gross Rated Total Cooling Capacity [W], 21457.85945
 Component Sizing Information, Coil:Cooling:DX:SingleSpeed, COIL COOLING DX SINGLE SPEED 4 73KBTU/HR 9.44EER, Design Size Gross Rated Sensible Heat Ratio, 0.69808
 DX Cooling Coil Standard Rating Information, Coil:Cooling:DX:SingleSpeed, COIL COOLING DX SINGLE SPEED 4 73KBTU/HR 9.44EER, 20784.4, 2.86, 9.74, 10.30, 10.07
 Component Sizing Information, Coil:Heating:Electric, COIL HEATING ELECTRIC 4, Design Size Nominal Capacity [W], 68826.84500
 Component Sizing Information, Fan:VariableVolume, FAN VARIABLE VOLUME 16, Design Size Maximum Flow Rate [m3/s], 0.86411
 Component Sizing Information, HeatExchanger:AirToAir:SensibleAndLatent, SYS_3_PSZ ALL_ST=OFFICE ENCLOSED <= 25 M2_FL=BUILDING STORY 1_SCH=A ERV, Design Size Nominal Supply Air Flow Rate [m3/s], 0.22431
 Component Sizing Information, Coil:Cooling:DX:SingleSpeed, COIL COOLING DX SINGLE SPEED 14 81KBTU/HR 9.44EER, Design Size Rated Air Flow Rate [m3/s], 0.54645
 Component Sizing Information, Coil:Cooling:DX:SingleSpeed, COIL COOLING DX SINGLE SPEED 14 81KBTU/HR 9.44EER, Design Size Gross Rated Total Cooling Capacity [W], 11712.38842
 Component Sizing Information, Coil:Cooling:DX:SingleSpeed, COIL COOLING DX SINGLE SPEED 14 81KBTU/HR 9.44EER, Design Size Gross Rated Sensible Heat Ratio, 0.74695
 DX Cooling Coil Standard Rating Information, Coil:Cooling:DX:SingleSpeed, COIL COOLING DX SINGLE SPEED 14 81KBTU/HR 9.44EER, 11287.0, 2.80, 9.57, 10.11, 9.78
 Component Sizing Information, Coil:Heating:Electric, COIL HEATING ELECTRIC 14, Design Size Nominal Capacity [W], 26045.62850
 Component Sizing Information, Fan:VariableVolume, FAN VARIABLE VOLUME 4, Design Size Maximum Flow Rate [m3/s], 0.54645
 Component Sizing Information, HeatExchanger:AirToAir:SensibleAndLatent, SYS_3_PSZ ALL_ST=OFFICE ENCLOSED <= 25 M2_FL=BUILDING STORY 2_SCH=A ERV, Design Size Nominal Supply Air Flow Rate [m3/s], 0.22431
 Component Sizing Information, Coil:Cooling:DX:SingleSpeed, COIL COOLING DX SINGLE SPEED 19 116KBTU/HR 9.44EER, Design Size Rated Air Flow Rate [m3/s], 0.77437
 Component Sizing Information, Coil:Cooling:DX:SingleSpeed, COIL COOLING DX SINGLE SPEED 19 116KBTU/HR 9.44EER, Design Size Gross Rated Total Cooling Capacity [W], 15318.01265
 Component Sizing Information, Coil:Cooling:DX:SingleSpeed, COIL COOLING DX SINGLE SPEED 19 116KBTU/HR 9.44EER, Design Size Gross Rated Sensible Heat Ratio, 0.77667
 DX Cooling Coil Standard Rating Information, Coil:Cooling:DX:SingleSpeed, COIL COOLING DX SINGLE SPEED 19 116KBTU/HR 9.44EER, 14715.5, 2.79, 9.52, 10.06, 9.67
 Component Sizing Information, Coil:Heating:Electric, COIL HEATING ELECTRIC 19, Design Size Nominal Capacity [W], 31835.80891
 Component Sizing Information, Fan:VariableVolume, FAN VARIABLE VOLUME 1, Design Size Maximum Flow Rate [m3/s], 0.77437
 Component Sizing Information, HeatExchanger:AirToAir:SensibleAndLatent, SYS_4_PSZ_WET_ST=WASHROOM - OTHER-SCH-D_FL=BUILDING STORY 1_SCHD ERV, Design Size Nominal Supply Air Flow Rate [m3/s], 0.12802
 Component Sizing Information, Coil:Cooling:DX:SingleSpeed, COIL COOLING DX SINGLE SPEED 1 49KBTU/HR 14.0SEER, Design Size Rated Air Flow Rate [m3/s], 0.36951
 Component Sizing Information, Coil:Cooling:DX:SingleSpeed, COIL COOLING DX SINGLE SPEED 1 49KBTU/HR 14.0SEER, Design Size Gross Rated Total Cooling Capacity [W], 8388.82188
 Component Sizing Information, Coil:Cooling:DX:SingleSpeed, COIL COOLING DX SINGLE SPEED 1 49KBTU/HR 14.0SEER, Design Size Gross Rated Sensible Heat Ratio, 0.72607
 DX Cooling Coil Standard Rating Information, Coil:Cooling:DX:SingleSpeed, COIL COOLING DX SINGLE SPEED 1 49KBTU/HR 14.0SEER, 8101.0, 3.27, 11.15, 11.78, 11.30
 Component Sizing Information, Coil:Heating:Electric, COIL HEATING ELECTRIC 1, Design Size Nominal Capacity [W], 16329.41724
 Component Sizing Information, Fan:VariableVolume, FAN VARIABLE VOLUME 15, Design Size Maximum Flow Rate [m3/s], 0.36951
 Component Sizing Information, HeatExchanger:AirToAir:SensibleAndLatent, SYS_4_PSZ_WILD_ST=CORRIDOR/TRANSITION AREA OTHER-SCH-D_FL=BUILDING STORY 2_SCH=D ERV, Design Size Nominal Supply Air Flow Rate [m3/s], 1.48864
 Component Sizing Information, Coil:Cooling:DX:SingleSpeed, COIL COOLING DX SINGLE SPEED 2 523KBTU/HR 8.39EER, Design Size Rated Air Flow Rate [m3/s], 3.67071
 Component Sizing Information, Coil:Cooling:DX:SingleSpeed, COIL COOLING DX SINGLE SPEED 2 523KBTU/HR 8.39EER, Design Size Gross Rated Total Cooling Capacity [W], 83203.05621
 Component Sizing Information, Coil:Cooling:DX:SingleSpeed, COIL COOLING DX SINGLE SPEED 2 523KBTU/HR 8.39EER, Design Size Gross Rated Sensible Heat Ratio, 0.72750
 DX Cooling Coil Standard Rating Information, Coil:Cooling:DX:SingleSpeed, COIL COOLING DX SINGLE SPEED 2 523KBTU/HR 8.39EER, 80344.3, 2.77, 9.45, 10.00, 9.72
 Component Sizing Information, Coil:Heating:Electric, COIL HEATING ELECTRIC 2, Design Size Nominal Capacity [W], 173986.99242
 Component Sizing Information, Fan:VariableVolume, FAN VARIABLE VOLUME 18, Design Size Maximum Flow Rate [m3/s], 3.67071
 Component Sizing Information, Coil:WaterHeating:AirToWaterHeatPump:Pumped, COIL WATER HEATING AIR TO WATER HEAT PUMP 1, Design Size Rated Evaporator Air Flow Rate [m3/s], 22.35169
 Component Sizing Information, Coil:WaterHeating:AirToWaterHeatPump:Pumped, COIL WATER HEATING AIR TO WATER HEAT PUMP 1, Design Size Rated Condenser Water Flow Rate [m3/s], 1.99190E-002
 Component Sizing Information, Fan:OnOff, FAN ON OFF 1, Design Size Maximum Flow Rate [m3/s], 22.35169
Heat Pump Water Heater Information,WaterHeater:HeatPump:PumpedCondenser,536GAL ELECTRICITY WATER HEATER - 1515KBTU/HR 1.0 THERM EFF ASHPWH,2.0282,362825.2,1.007,1.5487,283128
 Component Sizing Information, WaterHeater:HeatPump:PumpedCondenser, 536GAL ELECTRICITY WATER HEATER - 1515KBTU/HR 1.0 THERM EFF ASHPWH, Condenser water flow rate [m3/s], 1.99190E-002
 Component Sizing Information, WaterHeater:HeatPump:PumpedCondenser, 536GAL ELECTRICITY WATER HEATER - 1515KBTU/HR 1.0 THERM EFF ASHPWH, Evaporator air flow rate [m3/s], 22.35169
 Component Sizing Information, PlantLoop, MAIN SERVICE WATER LOOP, Maximum Loop Flow Rate [m3/s], 7.40089E-004
 Component Sizing Information, PlantLoop, MAIN SERVICE WATER LOOP, Plant Loop Volume [m3], 8.88106E-002
 Component Sizing Information, Pump:ConstantSpeed, SERVICE WATER LOOP PUMP, Design Flow Rate [m3/s], 7.40089E-004
 Component Sizing Information, Pump:ConstantSpeed, SERVICE WATER LOOP PUMP, Design Power Consumption [W], 1174.27378
 Component Sizing Information, WaterHeater:Mixed, 536GAL ELECTRICITY WATER HEATER - 1515KBTU/HR 1.0 THERM EFF, Use Side Design Flow Rate [m3/s], 7.40089E-004
! <Environment>,Environment Name,Environment Type, Start Date, End Date, Start DayOfWeek, Duration {#days}, Source:Start DayOfWeek,  Use Daylight Saving, Use Holidays, Apply Weekend Holiday Rule,  Use Rain Values, Use Snow Values
! <Environment:Special Days>, Special Day Name, Special Day Type, Source, Start Date, Duration {#days}
! <Environment:Daylight Saving>, Daylight Saving Indicator, Source, Start Date, End Date
! <Environment:WarmupDays>, NumberofWarmupDays
Environment,RUN PERIOD 1,WeatherFileRunPeriod,01/01,12/31,Sunday,365,Use RunPeriod Specified Day,No,No,No,Yes,Yes
Environment:Daylight Saving,No,RunPeriod Object
Environment:WarmupDays,  8
! <Tabular Report>,Style,Unit Conversion
Tabular Report,HTML,None
! <Warmup Convergence Information>,Zone Name,Environment Type/Name,Average Warmup Temperature Difference {deltaC},Std Dev Warmup Temperature Difference {deltaC},Max Temperature Pass/Fail Convergence,Min Temperature Pass/Fail Convergence,Average Warmup Load Difference {W},Std Dev Warmup Load Difference {W},Heating Load Pass/Fail Convergence,Cooling Load Pass/Fail Convergence
 Warmup Convergence Information,ALL_ST=AUDIENCE SEATING AREA PERMANENT - AUDITORIUM_FL=BUILDING STORY 1_SCH=C,RunPeriod: RUN PERIOD 1,0.1226272499,0.2875422806,Pass,Pass,0.7991540643,4.8521231213,Pass,Pass
 Warmup Convergence Information,ALL_ST=CLASSROOM/LECTURE HALL/TRAINING ROOM OTHER_FL=BUILDING STORY 1_SCH=D,RunPeriod: RUN PERIOD 1,0.1066379351,0.1315791902,Pass,Pass,3.0194816667E-002,8.1935398560E-002,Pass,Pass
 Warmup Convergence Information,ALL_ST=CLASSROOM/LECTURE HALL/TRAINING ROOM OTHER_FL=BUILDING STORY 1_SCH=D 1,RunPeriod: RUN PERIOD 1,0.0000000000,0.0000000000,Pass,Pass,9.9607466382E-003,8.8391132400E-003,Pass,Pass
 Warmup Convergence Information,ALL_ST=CLASSROOM/LECTURE HALL/TRAINING ROOM OTHER_FL=BUILDING STORY 1_SCH=D 2,RunPeriod: RUN PERIOD 1,0.1013128283,0.1153215545,Pass,Pass,0.0000000000,0.0000000000,Pass,Pass
 Warmup Convergence Information,ALL_ST=CLASSROOM/LECTURE HALL/TRAINING ROOM OTHER_FL=BUILDING STORY 1_SCH=D 3,RunPeriod: RUN PERIOD 1,7.3675955581E-003,2.7678667130E-002,Pass,Pass,4.0415664875E-002,0.1262594218,Pass,Pass
 Warmup Convergence Information,ALL_ST=CLASSROOM/LECTURE HALL/TRAINING ROOM OTHER_FL=BUILDING STORY 2_SCH=D,RunPeriod: RUN PERIOD 1,8.8817841970E-016,1.5383701491E-015,Pass,Pass,5.8267891644E-002,0.1261074682,Pass,Pass
 Warmup Convergence Information,ALL_ST=CLASSROOM/LECTURE HALL/TRAINING ROOM OTHER_FL=BUILDING STORY 2_SCH=D 1,RunPeriod: RUN PERIOD 1,0.1147222824,0.1848975079,Pass,Pass,8.4079508467E-002,0.2698127716,Pass,Pass
 Warmup Convergence Information,ALL_ST=CLASSROOM/LECTURE HALL/TRAINING ROOM OTHER_FL=BUILDING STORY 2_SCH=D 2,RunPeriod: RUN PERIOD 1,8.1416355139E-016,1.4931937910E-015,Pass,Pass,1.5650373753E-002,1.6234923453E-002,Pass,Pass
 Warmup Convergence Information,ALL_ST=CLASSROOM/LECTURE HALL/TRAINING ROOM OTHER_FL=BUILDING STORY 2_SCH=D 3,RunPeriod: RUN PERIOD 1,0.1175017844,0.1956208954,Pass,Pass,5.6670851111E-002,0.1686027342,Pass,Pass
 Warmup Convergence Information,ALL_ST=CONFERENCE/MEETING/MULTI-PURPOSE ROOM_FL=BUILDING STORY 1_SCH=C,RunPeriod: RUN PERIOD 1,0.1125136290,0.1809774766,Pass,Pass,4.0594081179,30.1588624556,Pass,Pass
 Warmup Convergence Information,ALL_ST=FOOD PREPARATION AREA_FL=BUILDING STORY 1_SCH=B,RunPeriod: RUN PERIOD 1,8.3114637516E-002,0.1885996598,Pass,Pass,0.9497254629,4.3375953433,Pass,Pass
 Warmup Convergence Information,ALL_ST=GYMNASIUM/FITNESS CENTRE PLAYING AREA_FL=BUILDING STORY 1_SCH=B,RunPeriod: RUN PERIOD 1,0.1788522676,0.2366023489,Pass,Pass,1.5054614538,6.7151778202,Pass,Pass
 Warmup Convergence Information,ALL_ST=GYMNASIUM/FITNESS CENTRE PLAYING AREA_FL=BUILDING STORY 1_SCH=B 1,RunPeriod: RUN PERIOD 1,0.1965894861,0.3014313359,Pass,Pass,4.3157772767,25.4248779842,Pass,Pass
 Warmup Convergence Information,ALL_ST=LIBRARY READING AREA_FL=BUILDING STORY 2_SCH=C,RunPeriod: RUN PERIOD 1,9.0090842486E-002,0.2638726935,Pass,Pass,0.4528262161,1.6260099690,Pass,Pass
 Warmup Convergence Information,ALL_ST=LOBBY - OTHER_FL=BUILDING STORY 1_SCH=C,RunPeriod: RUN PERIOD 1,0.1202690611,0.1573573867,Pass,Pass,1.0673043286,2.9622404224,Pass,Pass
 Warmup Convergence Information,ALL_ST=LOBBY - OTHER_FL=BUILDING STORY 2_SCH=C,RunPeriod: RUN PERIOD 1,0.1446042798,0.2564500499,Pass,Pass,1.3178147121,6.0861782164,Pass,Pass
 Warmup Convergence Information,ALL_ST=OFFICE ENCLOSED <= 25 M2_FL=BUILDING STORY 1_SCH=A,RunPeriod: RUN PERIOD 1,7.9721178859E-002,6.0774913143E-002,Pass,Pass,0.0000000000,0.0000000000,Pass,Pass
 Warmup Convergence Information,ALL_ST=OFFICE ENCLOSED <= 25 M2_FL=BUILDING STORY 2_SCH=A,RunPeriod: RUN PERIOD 1,0.1128031730,0.1349649987,Pass,Pass,3.4411333459E-002,0.1180918197,Pass,Pass
 Warmup Convergence Information,WET_ST=WASHROOM - OTHER-SCH-D_FL=BUILDING STORY 1_SCHD,RunPeriod: RUN PERIOD 1,0.0000000000,0.0000000000,Pass,Pass,2.0122478921E-002,1.4175476742E-002,Pass,Pass
 Warmup Convergence Information,WET_ST=WASHROOM - OTHER-SCH-D_FL=BUILDING STORY 2_SCHD,RunPeriod: RUN PERIOD 1,9.6219328801E-016,1.6599804118E-015,Pass,Pass,1.9068554390E-002,1.8628263606E-002,Pass,Pass
 Warmup Convergence Information,WILD_ST=CORRIDOR/TRANSITION AREA OTHER-SCH-D_FL=BUILDING STORY 1_SCH=D,RunPeriod: RUN PERIOD 1,1.0957493425E-002,1.0906614703E-002,Pass,Pass,3.9043054086E-002,0.1627695357,Pass,Pass
 Warmup Convergence Information,WILD_ST=CORRIDOR/TRANSITION AREA OTHER-SCH-D_FL=BUILDING STORY 1_SCH=D 1,RunPeriod: RUN PERIOD 1,2.6100613260E-002,2.1444026813E-002,Pass,Pass,3.6277325118E-002,0.1701161653,Pass,Pass
 Warmup Convergence Information,WILD_ST=CORRIDOR/TRANSITION AREA OTHER-SCH-D_FL=BUILDING STORY 2_SCH=D,RunPeriod: RUN PERIOD 1,1.9291171099E-005,1.3058641942E-004,Pass,Pass,0.1321578862,0.5048206723,Pass,Pass
 Warmup Convergence Information,WILD_ST=CORRIDOR/TRANSITION AREA OTHER-SCH-D_FL=BUILDING STORY 2_SCH=D 1,RunPeriod: RUN PERIOD 1,2.3421376319E-002,5.1039601261E-002,Pass,Pass,0.1318693239,0.7911744282,Pass,Pass
 Warmup Convergence Information,WILD_ST=ELECTRICAL/MECHANICAL ROOM-SCH-D_FL=BUILDING STORY 1_SCH=D,RunPeriod: RUN PERIOD 1,2.9943990415E-002,2.1279779255E-002,Pass,Pass,0.0000000000,0.0000000000,Pass,Pass
 Warmup Convergence Information,WILD_ST=ELECTRICAL/MECHANICAL ROOM-SCH-D_FL=BUILDING STORY 2_SCH=D,RunPeriod: RUN PERIOD 1,2.9836728800E-002,3.2271122665E-002,Pass,Pass,0.2455952630,2.0654808204,Pass,Pass
! <Program Control Information:Threads/Parallel Sims>, Threading Supported,Maximum Number of Threads, Env Set Threads (OMP_NUM_THREADS), EP Env Set Threads (EP_OMP_NUM_THREADS), IDF Set Threads, Number of Threads Used (Interior Radiant Exchange), Number Nominal Surfaces, Number Parallel Sims
Program Control:Threads/Parallel Sims, No,1, N/A, N/A, N/A, N/A, N/A, N/A
End of Data
