! Program Version,EnergyPlus, Version 8.9.0-eba93e8e1b, YMD=2019.08.13 18:30,
! Output:Meter Objects (applicable to this run)
Output:Meter,Electricity:Facility,hourly; !- [J]
Output:Meter:Cumulative,Electricity:Facility,hourly; !- [J]
Output:Meter,Electricity:Building,hourly; !- [J]
Output:Meter:Cumulative,Electricity:Building,hourly; !- [J]
Output:Meter,Electricity:Zone:ALL_ST=AUDIENCE SEATING AREA PERMANENT - AUDITORIUM_FL=BUILDING STORY 1_SCH=C,hourly; !- [J]
Output:Meter:Cumulative,Electricity:Zone:ALL_ST=AUDIENCE SEATING AREA PERMANENT - AUDITORIUM_FL=BUILDING STORY 1_SCH=C,hourly; !- [J]
Output:Meter,InteriorLights:Electricity,hourly; !- [J]
Output:Meter:Cumulative,InteriorLights:Electricity,hourly; !- [J]
Output:Meter,InteriorLights:Electricity:Zone:ALL_ST=AUDIENCE SEATING AREA PERMANENT - AUDITORIUM_FL=BUILDING STORY 1_SCH=C,hourly; !- [J]
Output:Meter:Cumulative,InteriorLights:Electricity:Zone:ALL_ST=AUDIENCE SEATING AREA PERMANENT - AUDITORIUM_FL=BUILDING STORY 1_SCH=C,hourly; !- [J]
Output:Meter,General:InteriorLights:Electricity,hourly; !- [J]
Output:Meter:Cumulative,General:InteriorLights:Electricity,hourly; !- [J]
Output:Meter,Electricity:Zone:ALL_ST=CLASSROOM/LECTURE HALL/TRAINING ROOM OTHER_FL=BUILDING STORY 1_SCH=D,hourly; !- [J]
Output:Meter:Cumulative,Electricity:Zone:ALL_ST=CLASSROOM/LECTURE HALL/TRAINING ROOM OTHER_FL=BUILDING STORY 1_SCH=D,hourly; !- [J]
Output:Meter,InteriorLights:Electricity:Zone:ALL_ST=CLASSROOM/LECTURE HALL/TRAINING ROOM OTHER_FL=BUILDING STORY 1_SCH=D,hourly; !- [J]
Output:Meter:Cumulative,InteriorLights:Electricity:Zone:ALL_ST=CLASSROOM/LECTURE HALL/TRAINING ROOM OTHER_FL=BUILDING STORY 1_SCH=D,hourly; !- [J]
Output:Meter,Electricity:Zone:ALL_ST=CLASSROOM/LECTURE HALL/TRAINING ROOM OTHER_FL=BUILDING STORY 1_SCH=D 1,hourly; !- [J]
Output:Meter:Cumulative,Electricity:Zone:ALL_ST=CLASSROOM/LECTURE HALL/TRAINING ROOM OTHER_FL=BUILDING STORY 1_SCH=D 1,hourly; !- [J]
Output:Meter,InteriorLights:Electricity:Zone:ALL_ST=CLASSROOM/LECTURE HALL/TRAINING ROOM OTHER_FL=BUILDING STORY 1_SCH=D 1,hourly; !- [J]
Output:Meter:Cumulative,InteriorLights:Electricity:Zone:ALL_ST=CLASSROOM/LECTURE HALL/TRAINING ROOM OTHER_FL=BUILDING STORY 1_SCH=D 1,hourly; !- [J]
Output:Meter,Electricity:Zone:ALL_ST=CLASSROOM/LECTURE HALL/TRAINING ROOM OTHER_FL=BUILDING STORY 1_SCH=D 2,hourly; !- [J]
Output:Meter:Cumulative,Electricity:Zone:ALL_ST=CLASSROOM/LECTURE HALL/TRAINING ROOM OTHER_FL=BUILDING STORY 1_SCH=D 2,hourly; !- [J]
Output:Meter,InteriorLights:Electricity:Zone:ALL_ST=CLASSROOM/LECTURE HALL/TRAINING ROOM OTHER_FL=BUILDING STORY 1_SCH=D 2,hourly; !- [J]
Output:Meter:Cumulative,InteriorLights:Electricity:Zone:ALL_ST=CLASSROOM/LECTURE HALL/TRAINING ROOM OTHER_FL=BUILDING STORY 1_SCH=D 2,hourly; !- [J]
Output:Meter,Electricity:Zone:ALL_ST=CLASSROOM/LECTURE HALL/TRAINING ROOM OTHER_FL=BUILDING STORY 1_SCH=D 3,hourly; !- [J]
Output:Meter:Cumulative,Electricity:Zone:ALL_ST=CLASSROOM/LECTURE HALL/TRAINING ROOM OTHER_FL=BUILDING STORY 1_SCH=D 3,hourly; !- [J]
Output:Meter,InteriorLights:Electricity:Zone:ALL_ST=CLASSROOM/LECTURE HALL/TRAINING ROOM OTHER_FL=BUILDING STORY 1_SCH=D 3,hourly; !- [J]
Output:Meter:Cumulative,InteriorLights:Electricity:Zone:ALL_ST=CLASSROOM/LECTURE HALL/TRAINING ROOM OTHER_FL=BUILDING STORY 1_SCH=D 3,hourly; !- [J]
Output:Meter,Electricity:Zone:ALL_ST=CLASSROOM/LECTURE HALL/TRAINING ROOM OTHER_FL=BUILDING STORY 2_SCH=D,hourly; !- [J]
Output:Meter:Cumulative,Electricity:Zone:ALL_ST=CLASSROOM/LECTURE HALL/TRAINING ROOM OTHER_FL=BUILDING STORY 2_SCH=D,hourly; !- [J]
Output:Meter,InteriorLights:Electricity:Zone:ALL_ST=CLASSROOM/LECTURE HALL/TRAINING ROOM OTHER_FL=BUILDING STORY 2_SCH=D,hourly; !- [J]
Output:Meter:Cumulative,InteriorLights:Electricity:Zone:ALL_ST=CLASSROOM/LECTURE HALL/TRAINING ROOM OTHER_FL=BUILDING STORY 2_SCH=D,hourly; !- [J]
Output:Meter,Electricity:Zone:ALL_ST=CLASSROOM/LECTURE HALL/TRAINING ROOM OTHER_FL=BUILDING STORY 2_SCH=D 1,hourly; !- [J]
Output:Meter:Cumulative,Electricity:Zone:ALL_ST=CLASSROOM/LECTURE HALL/TRAINING ROOM OTHER_FL=BUILDING STORY 2_SCH=D 1,hourly; !- [J]
Output:Meter,InteriorLights:Electricity:Zone:ALL_ST=CLASSROOM/LECTURE HALL/TRAINING ROOM OTHER_FL=BUILDING STORY 2_SCH=D 1,hourly; !- [J]
Output:Meter:Cumulative,InteriorLights:Electricity:Zone:ALL_ST=CLASSROOM/LECTURE HALL/TRAINING ROOM OTHER_FL=BUILDING STORY 2_SCH=D 1,hourly; !- [J]
Output:Meter,Electricity:Zone:ALL_ST=CLASSROOM/LECTURE HALL/TRAINING ROOM OTHER_FL=BUILDING STORY 2_SCH=D 2,hourly; !- [J]
Output:Meter:Cumulative,Electricity:Zone:ALL_ST=CLASSROOM/LECTURE HALL/TRAINING ROOM OTHER_FL=BUILDING STORY 2_SCH=D 2,hourly; !- [J]
Output:Meter,InteriorLights:Electricity:Zone:ALL_ST=CLASSROOM/LECTURE HALL/TRAINING ROOM OTHER_FL=BUILDING STORY 2_SCH=D 2,hourly; !- [J]
Output:Meter:Cumulative,InteriorLights:Electricity:Zone:ALL_ST=CLASSROOM/LECTURE HALL/TRAINING ROOM OTHER_FL=BUILDING STORY 2_SCH=D 2,hourly; !- [J]
Output:Meter,Electricity:Zone:ALL_ST=CLASSROOM/LECTURE HALL/TRAINING ROOM OTHER_FL=BUILDING STORY 2_SCH=D 3,hourly; !- [J]
Output:Meter:Cumulative,Electricity:Zone:ALL_ST=CLASSROOM/LECTURE HALL/TRAINING ROOM OTHER_FL=BUILDING STORY 2_SCH=D 3,hourly; !- [J]
Output:Meter,InteriorLights:Electricity:Zone:ALL_ST=CLASSROOM/LECTURE HALL/TRAINING ROOM OTHER_FL=BUILDING STORY 2_SCH=D 3,hourly; !- [J]
Output:Meter:Cumulative,InteriorLights:Electricity:Zone:ALL_ST=CLASSROOM/LECTURE HALL/TRAINING ROOM OTHER_FL=BUILDING STORY 2_SCH=D 3,hourly; !- [J]
Output:Meter,Electricity:Zone:ALL_ST=CONFERENCE/MEETING/MULTI-PURPOSE ROOM_FL=BUILDING STORY 1_SCH=C,hourly; !- [J]
Output:Meter:Cumulative,Electricity:Zone:ALL_ST=CONFERENCE/MEETING/MULTI-PURPOSE ROOM_FL=BUILDING STORY 1_SCH=C,hourly; !- [J]
Output:Meter,InteriorLights:Electricity:Zone:ALL_ST=CONFERENCE/MEETING/MULTI-PURPOSE ROOM_FL=BUILDING STORY 1_SCH=C,hourly; !- [J]
Output:Meter:Cumulative,InteriorLights:Electricity:Zone:ALL_ST=CONFERENCE/MEETING/MULTI-PURPOSE ROOM_FL=BUILDING STORY 1_SCH=C,hourly; !- [J]
Output:Meter,Electricity:Zone:WILD_ST=CORRIDOR/TRANSITION AREA OTHER-SCH-D_FL=BUILDING STORY 1_SCH=D,hourly; !- [J]
Output:Meter:Cumulative,Electricity:Zone:WILD_ST=CORRIDOR/TRANSITION AREA OTHER-SCH-D_FL=BUILDING STORY 1_SCH=D,hourly; !- [J]
Output:Meter,InteriorLights:Electricity:Zone:WILD_ST=CORRIDOR/TRANSITION AREA OTHER-SCH-D_FL=BUILDING STORY 1_SCH=D,hourly; !- [J]
Output:Meter:Cumulative,InteriorLights:Electricity:Zone:WILD_ST=CORRIDOR/TRANSITION AREA OTHER-SCH-D_FL=BUILDING STORY 1_SCH=D,hourly; !- [J]
Output:Meter,Electricity:Zone:WILD_ST=CORRIDOR/TRANSITION AREA OTHER-SCH-D_FL=BUILDING STORY 1_SCH=D 1,hourly; !- [J]
Output:Meter:Cumulative,Electricity:Zone:WILD_ST=CORRIDOR/TRANSITION AREA OTHER-SCH-D_FL=BUILDING STORY 1_SCH=D 1,hourly; !- [J]
Output:Meter,InteriorLights:Electricity:Zone:WILD_ST=CORRIDOR/TRANSITION AREA OTHER-SCH-D_FL=BUILDING STORY 1_SCH=D 1,hourly; !- [J]
Output:Meter:Cumulative,InteriorLights:Electricity:Zone:WILD_ST=CORRIDOR/TRANSITION AREA OTHER-SCH-D_FL=BUILDING STORY 1_SCH=D 1,hourly; !- [J]
Output:Meter,Electricity:Zone:WILD_ST=CORRIDOR/TRANSITION AREA OTHER-SCH-D_FL=BUILDING STORY 2_SCH=D,hourly; !- [J]
Output:Meter:Cumulative,Electricity:Zone:WILD_ST=CORRIDOR/TRANSITION AREA OTHER-SCH-D_FL=BUILDING STORY 2_SCH=D,hourly; !- [J]
Output:Meter,InteriorLights:Electricity:Zone:WILD_ST=CORRIDOR/TRANSITION AREA OTHER-SCH-D_FL=BUILDING STORY 2_SCH=D,hourly; !- [J]
Output:Meter:Cumulative,InteriorLights:Electricity:Zone:WILD_ST=CORRIDOR/TRANSITION AREA OTHER-SCH-D_FL=BUILDING STORY 2_SCH=D,hourly; !- [J]
Output:Meter,Electricity:Zone:WILD_ST=CORRIDOR/TRANSITION AREA OTHER-SCH-D_FL=BUILDING STORY 2_SCH=D 1,hourly; !- [J]
Output:Meter:Cumulative,Electricity:Zone:WILD_ST=CORRIDOR/TRANSITION AREA OTHER-SCH-D_FL=BUILDING STORY 2_SCH=D 1,hourly; !- [J]
Output:Meter,InteriorLights:Electricity:Zone:WILD_ST=CORRIDOR/TRANSITION AREA OTHER-SCH-D_FL=BUILDING STORY 2_SCH=D 1,hourly; !- [J]
Output:Meter:Cumulative,InteriorLights:Electricity:Zone:WILD_ST=CORRIDOR/TRANSITION AREA OTHER-SCH-D_FL=BUILDING STORY 2_SCH=D 1,hourly; !- [J]
Output:Meter,Electricity:Zone:WILD_ST=ELECTRICAL/MECHANICAL ROOM-SCH-D_FL=BUILDING STORY 1_SCH=D,hourly; !- [J]
Output:Meter:Cumulative,Electricity:Zone:WILD_ST=ELECTRICAL/MECHANICAL ROOM-SCH-D_FL=BUILDING STORY 1_SCH=D,hourly; !- [J]
Output:Meter,InteriorLights:Electricity:Zone:WILD_ST=ELECTRICAL/MECHANICAL ROOM-SCH-D_FL=BUILDING STORY 1_SCH=D,hourly; !- [J]
Output:Meter:Cumulative,InteriorLights:Electricity:Zone:WILD_ST=ELECTRICAL/MECHANICAL ROOM-SCH-D_FL=BUILDING STORY 1_SCH=D,hourly; !- [J]
Output:Meter,Electricity:Zone:WILD_ST=ELECTRICAL/MECHANICAL ROOM-SCH-D_FL=BUILDING STORY 2_SCH=D,hourly; !- [J]
Output:Meter:Cumulative,Electricity:Zone:WILD_ST=ELECTRICAL/MECHANICAL ROOM-SCH-D_FL=BUILDING STORY 2_SCH=D,hourly; !- [J]
Output:Meter,InteriorLights:Electricity:Zone:WILD_ST=ELECTRICAL/MECHANICAL ROOM-SCH-D_FL=BUILDING STORY 2_SCH=D,hourly; !- [J]
Output:Meter:Cumulative,InteriorLights:Electricity:Zone:WILD_ST=ELECTRICAL/MECHANICAL ROOM-SCH-D_FL=BUILDING STORY 2_SCH=D,hourly; !- [J]
Output:Meter,Electricity:Zone:ALL_ST=FOOD PREPARATION AREA_FL=BUILDING STORY 1_SCH=B,hourly; !- [J]
Output:Meter:Cumulative,Electricity:Zone:ALL_ST=FOOD PREPARATION AREA_FL=BUILDING STORY 1_SCH=B,hourly; !- [J]
Output:Meter,InteriorLights:Electricity:Zone:ALL_ST=FOOD PREPARATION AREA_FL=BUILDING STORY 1_SCH=B,hourly; !- [J]
Output:Meter:Cumulative,InteriorLights:Electricity:Zone:ALL_ST=FOOD PREPARATION AREA_FL=BUILDING STORY 1_SCH=B,hourly; !- [J]
Output:Meter,Electricity:Zone:ALL_ST=GYMNASIUM/FITNESS CENTRE PLAYING AREA_FL=BUILDING STORY 1_SCH=B,hourly; !- [J]
Output:Meter:Cumulative,Electricity:Zone:ALL_ST=GYMNASIUM/FITNESS CENTRE PLAYING AREA_FL=BUILDING STORY 1_SCH=B,hourly; !- [J]
Output:Meter,InteriorLights:Electricity:Zone:ALL_ST=GYMNASIUM/FITNESS CENTRE PLAYING AREA_FL=BUILDING STORY 1_SCH=B,hourly; !- [J]
Output:Meter:Cumulative,InteriorLights:Electricity:Zone:ALL_ST=GYMNASIUM/FITNESS CENTRE PLAYING AREA_FL=BUILDING STORY 1_SCH=B,hourly; !- [J]
Output:Meter,Electricity:Zone:ALL_ST=GYMNASIUM/FITNESS CENTRE PLAYING AREA_FL=BUILDING STORY 1_SCH=B 1,hourly; !- [J]
Output:Meter:Cumulative,Electricity:Zone:ALL_ST=GYMNASIUM/FITNESS CENTRE PLAYING AREA_FL=BUILDING STORY 1_SCH=B 1,hourly; !- [J]
Output:Meter,InteriorLights:Electricity:Zone:ALL_ST=GYMNASIUM/FITNESS CENTRE PLAYING AREA_FL=BUILDING STORY 1_SCH=B 1,hourly; !- [J]
Output:Meter:Cumulative,InteriorLights:Electricity:Zone:ALL_ST=GYMNASIUM/FITNESS CENTRE PLAYING AREA_FL=BUILDING STORY 1_SCH=B 1,hourly; !- [J]
Output:Meter,Electricity:Zone:ALL_ST=LIBRARY READING AREA_FL=BUILDING STORY 2_SCH=C,hourly; !- [J]
Output:Meter:Cumulative,Electricity:Zone:ALL_ST=LIBRARY READING AREA_FL=BUILDING STORY 2_SCH=C,hourly; !- [J]
Output:Meter,InteriorLights:Electricity:Zone:ALL_ST=LIBRARY READING AREA_FL=BUILDING STORY 2_SCH=C,hourly; !- [J]
Output:Meter:Cumulative,InteriorLights:Electricity:Zone:ALL_ST=LIBRARY READING AREA_FL=BUILDING STORY 2_SCH=C,hourly; !- [J]
Output:Meter,Electricity:Zone:ALL_ST=LOBBY - OTHER_FL=BUILDING STORY 1_SCH=C,hourly; !- [J]
Output:Meter:Cumulative,Electricity:Zone:ALL_ST=LOBBY - OTHER_FL=BUILDING STORY 1_SCH=C,hourly; !- [J]
Output:Meter,InteriorLights:Electricity:Zone:ALL_ST=LOBBY - OTHER_FL=BUILDING STORY 1_SCH=C,hourly; !- [J]
Output:Meter:Cumulative,InteriorLights:Electricity:Zone:ALL_ST=LOBBY - OTHER_FL=BUILDING STORY 1_SCH=C,hourly; !- [J]
Output:Meter,Electricity:Zone:ALL_ST=LOBBY - OTHER_FL=BUILDING STORY 2_SCH=C,hourly; !- [J]
Output:Meter:Cumulative,Electricity:Zone:ALL_ST=LOBBY - OTHER_FL=BUILDING STORY 2_SCH=C,hourly; !- [J]
Output:Meter,InteriorLights:Electricity:Zone:ALL_ST=LOBBY - OTHER_FL=BUILDING STORY 2_SCH=C,hourly; !- [J]
Output:Meter:Cumulative,InteriorLights:Electricity:Zone:ALL_ST=LOBBY - OTHER_FL=BUILDING STORY 2_SCH=C,hourly; !- [J]
Output:Meter,Electricity:Zone:ALL_ST=OFFICE ENCLOSED <= 25 M2_FL=BUILDING STORY 1_SCH=A,hourly; !- [J]
Output:Meter:Cumulative,Electricity:Zone:ALL_ST=OFFICE ENCLOSED <= 25 M2_FL=BUILDING STORY 1_SCH=A,hourly; !- [J]
Output:Meter,InteriorLights:Electricity:Zone:ALL_ST=OFFICE ENCLOSED <= 25 M2_FL=BUILDING STORY 1_SCH=A,hourly; !- [J]
Output:Meter:Cumulative,InteriorLights:Electricity:Zone:ALL_ST=OFFICE ENCLOSED <= 25 M2_FL=BUILDING STORY 1_SCH=A,hourly; !- [J]
Output:Meter,Electricity:Zone:ALL_ST=OFFICE ENCLOSED <= 25 M2_FL=BUILDING STORY 2_SCH=A,hourly; !- [J]
Output:Meter:Cumulative,Electricity:Zone:ALL_ST=OFFICE ENCLOSED <= 25 M2_FL=BUILDING STORY 2_SCH=A,hourly; !- [J]
Output:Meter,InteriorLights:Electricity:Zone:ALL_ST=OFFICE ENCLOSED <= 25 M2_FL=BUILDING STORY 2_SCH=A,hourly; !- [J]
Output:Meter:Cumulative,InteriorLights:Electricity:Zone:ALL_ST=OFFICE ENCLOSED <= 25 M2_FL=BUILDING STORY 2_SCH=A,hourly; !- [J]
Output:Meter,Electricity:Zone:WET_ST=WASHROOM - OTHER-SCH-D_FL=BUILDING STORY 1_SCHD,hourly; !- [J]
Output:Meter:Cumulative,Electricity:Zone:WET_ST=WASHROOM - OTHER-SCH-D_FL=BUILDING STORY 1_SCHD,hourly; !- [J]
Output:Meter,InteriorLights:Electricity:Zone:WET_ST=WASHROOM - OTHER-SCH-D_FL=BUILDING STORY 1_SCHD,hourly; !- [J]
Output:Meter:Cumulative,InteriorLights:Electricity:Zone:WET_ST=WASHROOM - OTHER-SCH-D_FL=BUILDING STORY 1_SCHD,hourly; !- [J]
Output:Meter,Electricity:Zone:WET_ST=WASHROOM - OTHER-SCH-D_FL=BUILDING STORY 2_SCHD,hourly; !- [J]
Output:Meter:Cumulative,Electricity:Zone:WET_ST=WASHROOM - OTHER-SCH-D_FL=BUILDING STORY 2_SCHD,hourly; !- [J]
Output:Meter,InteriorLights:Electricity:Zone:WET_ST=WASHROOM - OTHER-SCH-D_FL=BUILDING STORY 2_SCHD,hourly; !- [J]
Output:Meter:Cumulative,InteriorLights:Electricity:Zone:WET_ST=WASHROOM - OTHER-SCH-D_FL=BUILDING STORY 2_SCHD,hourly; !- [J]
Output:Meter,InteriorEquipment:Electricity,hourly; !- [J]
Output:Meter:Cumulative,InteriorEquipment:Electricity,hourly; !- [J]
Output:Meter,InteriorEquipment:Electricity:Zone:ALL_ST=AUDIENCE SEATING AREA PERMANENT - AUDITORIUM_FL=BUILDING STORY 1_SCH=C,hourly; !- [J]
Output:Meter:Cumulative,InteriorEquipment:Electricity:Zone:ALL_ST=AUDIENCE SEATING AREA PERMANENT - AUDITORIUM_FL=BUILDING STORY 1_SCH=C,hourly; !- [J]
Output:Meter,General:InteriorEquipment:Electricity,hourly; !- [J]
Output:Meter:Cumulative,General:InteriorEquipment:Electricity,hourly; !- [J]
Output:Meter,InteriorEquipment:Electricity:Zone:ALL_ST=CLASSROOM/LECTURE HALL/TRAINING ROOM OTHER_FL=BUILDING STORY 1_SCH=D,hourly; !- [J]
Output:Meter:Cumulative,InteriorEquipment:Electricity:Zone:ALL_ST=CLASSROOM/LECTURE HALL/TRAINING ROOM OTHER_FL=BUILDING STORY 1_SCH=D,hourly; !- [J]
Output:Meter,InteriorEquipment:Electricity:Zone:ALL_ST=CLASSROOM/LECTURE HALL/TRAINING ROOM OTHER_FL=BUILDING STORY 1_SCH=D 1,hourly; !- [J]
Output:Meter:Cumulative,InteriorEquipment:Electricity:Zone:ALL_ST=CLASSROOM/LECTURE HALL/TRAINING ROOM OTHER_FL=BUILDING STORY 1_SCH=D 1,hourly; !- [J]
Output:Meter,InteriorEquipment:Electricity:Zone:ALL_ST=CLASSROOM/LECTURE HALL/TRAINING ROOM OTHER_FL=BUILDING STORY 1_SCH=D 2,hourly; !- [J]
Output:Meter:Cumulative,InteriorEquipment:Electricity:Zone:ALL_ST=CLASSROOM/LECTURE HALL/TRAINING ROOM OTHER_FL=BUILDING STORY 1_SCH=D 2,hourly; !- [J]
Output:Meter,InteriorEquipment:Electricity:Zone:ALL_ST=CLASSROOM/LECTURE HALL/TRAINING ROOM OTHER_FL=BUILDING STORY 1_SCH=D 3,hourly; !- [J]
Output:Meter:Cumulative,InteriorEquipment:Electricity:Zone:ALL_ST=CLASSROOM/LECTURE HALL/TRAINING ROOM OTHER_FL=BUILDING STORY 1_SCH=D 3,hourly; !- [J]
Output:Meter,InteriorEquipment:Electricity:Zone:ALL_ST=CLASSROOM/LECTURE HALL/TRAINING ROOM OTHER_FL=BUILDING STORY 2_SCH=D,hourly; !- [J]
Output:Meter:Cumulative,InteriorEquipment:Electricity:Zone:ALL_ST=CLASSROOM/LECTURE HALL/TRAINING ROOM OTHER_FL=BUILDING STORY 2_SCH=D,hourly; !- [J]
Output:Meter,InteriorEquipment:Electricity:Zone:ALL_ST=CLASSROOM/LECTURE HALL/TRAINING ROOM OTHER_FL=BUILDING STORY 2_SCH=D 1,hourly; !- [J]
Output:Meter:Cumulative,InteriorEquipment:Electricity:Zone:ALL_ST=CLASSROOM/LECTURE HALL/TRAINING ROOM OTHER_FL=BUILDING STORY 2_SCH=D 1,hourly; !- [J]
Output:Meter,InteriorEquipment:Electricity:Zone:ALL_ST=CLASSROOM/LECTURE HALL/TRAINING ROOM OTHER_FL=BUILDING STORY 2_SCH=D 2,hourly; !- [J]
Output:Meter:Cumulative,InteriorEquipment:Electricity:Zone:ALL_ST=CLASSROOM/LECTURE HALL/TRAINING ROOM OTHER_FL=BUILDING STORY 2_SCH=D 2,hourly; !- [J]
Output:Meter,InteriorEquipment:Electricity:Zone:ALL_ST=CLASSROOM/LECTURE HALL/TRAINING ROOM OTHER_FL=BUILDING STORY 2_SCH=D 3,hourly; !- [J]
Output:Meter:Cumulative,InteriorEquipment:Electricity:Zone:ALL_ST=CLASSROOM/LECTURE HALL/TRAINING ROOM OTHER_FL=BUILDING STORY 2_SCH=D 3,hourly; !- [J]
Output:Meter,InteriorEquipment:Electricity:Zone:ALL_ST=CONFERENCE/MEETING/MULTI-PURPOSE ROOM_FL=BUILDING STORY 1_SCH=C,hourly; !- [J]
Output:Meter:Cumulative,InteriorEquipment:Electricity:Zone:ALL_ST=CONFERENCE/MEETING/MULTI-PURPOSE ROOM_FL=BUILDING STORY 1_SCH=C,hourly; !- [J]
Output:Meter,InteriorEquipment:Electricity:Zone:WILD_ST=ELECTRICAL/MECHANICAL ROOM-SCH-D_FL=BUILDING STORY 1_SCH=D,hourly; !- [J]
Output:Meter:Cumulative,InteriorEquipment:Electricity:Zone:WILD_ST=ELECTRICAL/MECHANICAL ROOM-SCH-D_FL=BUILDING STORY 1_SCH=D,hourly; !- [J]
Output:Meter,InteriorEquipment:Electricity:Zone:WILD_ST=ELECTRICAL/MECHANICAL ROOM-SCH-D_FL=BUILDING STORY 2_SCH=D,hourly; !- [J]
Output:Meter:Cumulative,InteriorEquipment:Electricity:Zone:WILD_ST=ELECTRICAL/MECHANICAL ROOM-SCH-D_FL=BUILDING STORY 2_SCH=D,hourly; !- [J]
Output:Meter,InteriorEquipment:Electricity:Zone:ALL_ST=FOOD PREPARATION AREA_FL=BUILDING STORY 1_SCH=B,hourly; !- [J]
Output:Meter:Cumulative,InteriorEquipment:Electricity:Zone:ALL_ST=FOOD PREPARATION AREA_FL=BUILDING STORY 1_SCH=B,hourly; !- [J]
Output:Meter,InteriorEquipment:Electricity:Zone:ALL_ST=GYMNASIUM/FITNESS CENTRE PLAYING AREA_FL=BUILDING STORY 1_SCH=B,hourly; !- [J]
Output:Meter:Cumulative,InteriorEquipment:Electricity:Zone:ALL_ST=GYMNASIUM/FITNESS CENTRE PLAYING AREA_FL=BUILDING STORY 1_SCH=B,hourly; !- [J]
Output:Meter,InteriorEquipment:Electricity:Zone:ALL_ST=GYMNASIUM/FITNESS CENTRE PLAYING AREA_FL=BUILDING STORY 1_SCH=B 1,hourly; !- [J]
Output:Meter:Cumulative,InteriorEquipment:Electricity:Zone:ALL_ST=GYMNASIUM/FITNESS CENTRE PLAYING AREA_FL=BUILDING STORY 1_SCH=B 1,hourly; !- [J]
Output:Meter,InteriorEquipment:Electricity:Zone:ALL_ST=LIBRARY READING AREA_FL=BUILDING STORY 2_SCH=C,hourly; !- [J]
Output:Meter:Cumulative,InteriorEquipment:Electricity:Zone:ALL_ST=LIBRARY READING AREA_FL=BUILDING STORY 2_SCH=C,hourly; !- [J]
Output:Meter,InteriorEquipment:Electricity:Zone:ALL_ST=LOBBY - OTHER_FL=BUILDING STORY 1_SCH=C,hourly; !- [J]
Output:Meter:Cumulative,InteriorEquipment:Electricity:Zone:ALL_ST=LOBBY - OTHER_FL=BUILDING STORY 1_SCH=C,hourly; !- [J]
Output:Meter,InteriorEquipment:Electricity:Zone:ALL_ST=LOBBY - OTHER_FL=BUILDING STORY 2_SCH=C,hourly; !- [J]
Output:Meter:Cumulative,InteriorEquipment:Electricity:Zone:ALL_ST=LOBBY - OTHER_FL=BUILDING STORY 2_SCH=C,hourly; !- [J]
Output:Meter,InteriorEquipment:Electricity:Zone:ALL_ST=OFFICE ENCLOSED <= 25 M2_FL=BUILDING STORY 1_SCH=A,hourly; !- [J]
Output:Meter:Cumulative,InteriorEquipment:Electricity:Zone:ALL_ST=OFFICE ENCLOSED <= 25 M2_FL=BUILDING STORY 1_SCH=A,hourly; !- [J]
Output:Meter,InteriorEquipment:Electricity:Zone:ALL_ST=OFFICE ENCLOSED <= 25 M2_FL=BUILDING STORY 2_SCH=A,hourly; !- [J]
Output:Meter:Cumulative,InteriorEquipment:Electricity:Zone:ALL_ST=OFFICE ENCLOSED <= 25 M2_FL=BUILDING STORY 2_SCH=A,hourly; !- [J]
Output:Meter,InteriorEquipment:Electricity:Zone:WET_ST=WASHROOM - OTHER-SCH-D_FL=BUILDING STORY 1_SCHD,hourly; !- [J]
Output:Meter:Cumulative,InteriorEquipment:Electricity:Zone:WET_ST=WASHROOM - OTHER-SCH-D_FL=BUILDING STORY 1_SCHD,hourly; !- [J]
Output:Meter,InteriorEquipment:Electricity:Zone:WET_ST=WASHROOM - OTHER-SCH-D_FL=BUILDING STORY 2_SCHD,hourly; !- [J]
Output:Meter:Cumulative,InteriorEquipment:Electricity:Zone:WET_ST=WASHROOM - OTHER-SCH-D_FL=BUILDING STORY 2_SCHD,hourly; !- [J]
Output:Meter,EnergyTransfer:Facility,hourly; !- [J]
Output:Meter:Cumulative,EnergyTransfer:Facility,hourly; !- [J]
Output:Meter,EnergyTransfer:HVAC,hourly; !- [J]
Output:Meter:Cumulative,EnergyTransfer:HVAC,hourly; !- [J]
Output:Meter,CoolingCoils:EnergyTransfer,hourly; !- [J]
Output:Meter:Cumulative,CoolingCoils:EnergyTransfer,hourly; !- [J]
Output:Meter,Electricity:HVAC,hourly; !- [J]
Output:Meter:Cumulative,Electricity:HVAC,hourly; !- [J]
Output:Meter,Cooling:Electricity,hourly; !- [J]
Output:Meter:Cumulative,Cooling:Electricity,hourly; !- [J]
Output:Meter,Electricity:Plant,hourly; !- [J]
Output:Meter:Cumulative,Electricity:Plant,hourly; !- [J]
Output:Meter,WaterSystems:Electricity,hourly; !- [J]
Output:Meter:Cumulative,WaterSystems:Electricity,hourly; !- [J]
Output:Meter,Fans:Electricity,hourly; !- [J]
Output:Meter:Cumulative,Fans:Electricity,hourly; !- [J]
Output:Meter,General:Fans:Electricity,hourly; !- [J]
Output:Meter:Cumulative,General:Fans:Electricity,hourly; !- [J]
Output:Meter,PlantLoopHeatingDemand:Facility,hourly; !- [J]
Output:Meter:Cumulative,PlantLoopHeatingDemand:Facility,hourly; !- [J]
Output:Meter,PlantLoopHeatingDemand:Plant,hourly; !- [J]
Output:Meter:Cumulative,PlantLoopHeatingDemand:Plant,hourly; !- [J]
Output:Meter,WaterSystems:PlantLoopHeatingDemand,hourly; !- [J]
Output:Meter:Cumulative,WaterSystems:PlantLoopHeatingDemand,hourly; !- [J]
Output:Meter,General:WaterSystems:PlantLoopHeatingDemand,hourly; !- [J]
Output:Meter:Cumulative,General:WaterSystems:PlantLoopHeatingDemand,hourly; !- [J]
Output:Meter,General:WaterSystems:Electricity,hourly; !- [J]
Output:Meter:Cumulative,General:WaterSystems:Electricity,hourly; !- [J]
Output:Meter,Water:Facility,hourly; !- [m3]
Output:Meter:Cumulative,Water:Facility,hourly; !- [m3]
Output:Meter,Water:Plant,hourly; !- [m3]
Output:Meter:Cumulative,Water:Plant,hourly; !- [m3]
Output:Meter,WaterSystems:Water,hourly; !- [m3]
Output:Meter:Cumulative,WaterSystems:Water,hourly; !- [m3]
Output:Meter,General:WaterSystems:Water,hourly; !- [m3]
Output:Meter:Cumulative,General:WaterSystems:Water,hourly; !- [m3]
Output:Meter,MainsWater:Facility,hourly; !- [m3]
Output:Meter:Cumulative,MainsWater:Facility,hourly; !- [m3]
Output:Meter,MainsWater:Plant,hourly; !- [m3]
Output:Meter:Cumulative,MainsWater:Plant,hourly; !- [m3]
Output:Meter,WaterSystems:MainsWater,hourly; !- [m3]
Output:Meter:Cumulative,WaterSystems:MainsWater,hourly; !- [m3]
Output:Meter,General:WaterSystems:MainsWater,hourly; !- [m3]
Output:Meter:Cumulative,General:WaterSystems:MainsWater,hourly; !- [m3]
Output:Meter,Water Heater Parasitic:WaterSystems:Electricity,hourly; !- [J]
Output:Meter:Cumulative,Water Heater Parasitic:WaterSystems:Electricity,hourly; !- [J]
Output:Meter,EnergyTransfer:Building,hourly; !- [J]
Output:Meter:Cumulative,EnergyTransfer:Building,hourly; !- [J]
Output:Meter,EnergyTransfer:Zone:ALL_ST=AUDIENCE SEATING AREA PERMANENT - AUDITORIUM_FL=BUILDING STORY 1_SCH=C,hourly; !- [J]
Output:Meter:Cumulative,EnergyTransfer:Zone:ALL_ST=AUDIENCE SEATING AREA PERMANENT - AUDITORIUM_FL=BUILDING STORY 1_SCH=C,hourly; !- [J]
Output:Meter,Heating:EnergyTransfer,hourly; !- [J]
Output:Meter:Cumulative,Heating:EnergyTransfer,hourly; !- [J]
Output:Meter,Heating:EnergyTransfer:Zone:ALL_ST=AUDIENCE SEATING AREA PERMANENT - AUDITORIUM_FL=BUILDING STORY 1_SCH=C,hourly; !- [J]
Output:Meter:Cumulative,Heating:EnergyTransfer:Zone:ALL_ST=AUDIENCE SEATING AREA PERMANENT - AUDITORIUM_FL=BUILDING STORY 1_SCH=C,hourly; !- [J]
Output:Meter,Cooling:EnergyTransfer,hourly; !- [J]
Output:Meter:Cumulative,Cooling:EnergyTransfer,hourly; !- [J]
Output:Meter,Cooling:EnergyTransfer:Zone:ALL_ST=AUDIENCE SEATING AREA PERMANENT - AUDITORIUM_FL=BUILDING STORY 1_SCH=C,hourly; !- [J]
Output:Meter:Cumulative,Cooling:EnergyTransfer:Zone:ALL_ST=AUDIENCE SEATING AREA PERMANENT - AUDITORIUM_FL=BUILDING STORY 1_SCH=C,hourly; !- [J]
Output:Meter,EnergyTransfer:Zone:ALL_ST=CLASSROOM/LECTURE HALL/TRAINING ROOM OTHER_FL=BUILDING STORY 1_SCH=D,hourly; !- [J]
Output:Meter:Cumulative,EnergyTransfer:Zone:ALL_ST=CLASSROOM/LECTURE HALL/TRAINING ROOM OTHER_FL=BUILDING STORY 1_SCH=D,hourly; !- [J]
Output:Meter,Heating:EnergyTransfer:Zone:ALL_ST=CLASSROOM/LECTURE HALL/TRAINING ROOM OTHER_FL=BUILDING STORY 1_SCH=D,hourly; !- [J]
Output:Meter:Cumulative,Heating:EnergyTransfer:Zone:ALL_ST=CLASSROOM/LECTURE HALL/TRAINING ROOM OTHER_FL=BUILDING STORY 1_SCH=D,hourly; !- [J]
Output:Meter,Cooling:EnergyTransfer:Zone:ALL_ST=CLASSROOM/LECTURE HALL/TRAINING ROOM OTHER_FL=BUILDING STORY 1_SCH=D,hourly; !- [J]
Output:Meter:Cumulative,Cooling:EnergyTransfer:Zone:ALL_ST=CLASSROOM/LECTURE HALL/TRAINING ROOM OTHER_FL=BUILDING STORY 1_SCH=D,hourly; !- [J]
Output:Meter,EnergyTransfer:Zone:ALL_ST=CLASSROOM/LECTURE HALL/TRAINING ROOM OTHER_FL=BUILDING STORY 1_SCH=D 1,hourly; !- [J]
Output:Meter:Cumulative,EnergyTransfer:Zone:ALL_ST=CLASSROOM/LECTURE HALL/TRAINING ROOM OTHER_FL=BUILDING STORY 1_SCH=D 1,hourly; !- [J]
Output:Meter,Heating:EnergyTransfer:Zone:ALL_ST=CLASSROOM/LECTURE HALL/TRAINING ROOM OTHER_FL=BUILDING STORY 1_SCH=D 1,hourly; !- [J]
Output:Meter:Cumulative,Heating:EnergyTransfer:Zone:ALL_ST=CLASSROOM/LECTURE HALL/TRAINING ROOM OTHER_FL=BUILDING STORY 1_SCH=D 1,hourly; !- [J]
Output:Meter,Cooling:EnergyTransfer:Zone:ALL_ST=CLASSROOM/LECTURE HALL/TRAINING ROOM OTHER_FL=BUILDING STORY 1_SCH=D 1,hourly; !- [J]
Output:Meter:Cumulative,Cooling:EnergyTransfer:Zone:ALL_ST=CLASSROOM/LECTURE HALL/TRAINING ROOM OTHER_FL=BUILDING STORY 1_SCH=D 1,hourly; !- [J]
Output:Meter,EnergyTransfer:Zone:ALL_ST=CLASSROOM/LECTURE HALL/TRAINING ROOM OTHER_FL=BUILDING STORY 1_SCH=D 2,hourly; !- [J]
Output:Meter:Cumulative,EnergyTransfer:Zone:ALL_ST=CLASSROOM/LECTURE HALL/TRAINING ROOM OTHER_FL=BUILDING STORY 1_SCH=D 2,hourly; !- [J]
Output:Meter,Heating:EnergyTransfer:Zone:ALL_ST=CLASSROOM/LECTURE HALL/TRAINING ROOM OTHER_FL=BUILDING STORY 1_SCH=D 2,hourly; !- [J]
Output:Meter:Cumulative,Heating:EnergyTransfer:Zone:ALL_ST=CLASSROOM/LECTURE HALL/TRAINING ROOM OTHER_FL=BUILDING STORY 1_SCH=D 2,hourly; !- [J]
Output:Meter,Cooling:EnergyTransfer:Zone:ALL_ST=CLASSROOM/LECTURE HALL/TRAINING ROOM OTHER_FL=BUILDING STORY 1_SCH=D 2,hourly; !- [J]
Output:Meter:Cumulative,Cooling:EnergyTransfer:Zone:ALL_ST=CLASSROOM/LECTURE HALL/TRAINING ROOM OTHER_FL=BUILDING STORY 1_SCH=D 2,hourly; !- [J]
Output:Meter,EnergyTransfer:Zone:ALL_ST=CLASSROOM/LECTURE HALL/TRAINING ROOM OTHER_FL=BUILDING STORY 1_SCH=D 3,hourly; !- [J]
Output:Meter:Cumulative,EnergyTransfer:Zone:ALL_ST=CLASSROOM/LECTURE HALL/TRAINING ROOM OTHER_FL=BUILDING STORY 1_SCH=D 3,hourly; !- [J]
Output:Meter,Heating:EnergyTransfer:Zone:ALL_ST=CLASSROOM/LECTURE HALL/TRAINING ROOM OTHER_FL=BUILDING STORY 1_SCH=D 3,hourly; !- [J]
Output:Meter:Cumulative,Heating:EnergyTransfer:Zone:ALL_ST=CLASSROOM/LECTURE HALL/TRAINING ROOM OTHER_FL=BUILDING STORY 1_SCH=D 3,hourly; !- [J]
Output:Meter,Cooling:EnergyTransfer:Zone:ALL_ST=CLASSROOM/LECTURE HALL/TRAINING ROOM OTHER_FL=BUILDING STORY 1_SCH=D 3,hourly; !- [J]
Output:Meter:Cumulative,Cooling:EnergyTransfer:Zone:ALL_ST=CLASSROOM/LECTURE HALL/TRAINING ROOM OTHER_FL=BUILDING STORY 1_SCH=D 3,hourly; !- [J]
Output:Meter,EnergyTransfer:Zone:ALL_ST=CLASSROOM/LECTURE HALL/TRAINING ROOM OTHER_FL=BUILDING STORY 2_SCH=D,hourly; !- [J]
Output:Meter:Cumulative,EnergyTransfer:Zone:ALL_ST=CLASSROOM/LECTURE HALL/TRAINING ROOM OTHER_FL=BUILDING STORY 2_SCH=D,hourly; !- [J]
Output:Meter,Heating:EnergyTransfer:Zone:ALL_ST=CLASSROOM/LECTURE HALL/TRAINING ROOM OTHER_FL=BUILDING STORY 2_SCH=D,hourly; !- [J]
Output:Meter:Cumulative,Heating:EnergyTransfer:Zone:ALL_ST=CLASSROOM/LECTURE HALL/TRAINING ROOM OTHER_FL=BUILDING STORY 2_SCH=D,hourly; !- [J]
Output:Meter,Cooling:EnergyTransfer:Zone:ALL_ST=CLASSROOM/LECTURE HALL/TRAINING ROOM OTHER_FL=BUILDING STORY 2_SCH=D,hourly; !- [J]
Output:Meter:Cumulative,Cooling:EnergyTransfer:Zone:ALL_ST=CLASSROOM/LECTURE HALL/TRAINING ROOM OTHER_FL=BUILDING STORY 2_SCH=D,hourly; !- [J]
Output:Meter,EnergyTransfer:Zone:ALL_ST=CLASSROOM/LECTURE HALL/TRAINING ROOM OTHER_FL=BUILDING STORY 2_SCH=D 1,hourly; !- [J]
Output:Meter:Cumulative,EnergyTransfer:Zone:ALL_ST=CLASSROOM/LECTURE HALL/TRAINING ROOM OTHER_FL=BUILDING STORY 2_SCH=D 1,hourly; !- [J]
Output:Meter,Heating:EnergyTransfer:Zone:ALL_ST=CLASSROOM/LECTURE HALL/TRAINING ROOM OTHER_FL=BUILDING STORY 2_SCH=D 1,hourly; !- [J]
Output:Meter:Cumulative,Heating:EnergyTransfer:Zone:ALL_ST=CLASSROOM/LECTURE HALL/TRAINING ROOM OTHER_FL=BUILDING STORY 2_SCH=D 1,hourly; !- [J]
Output:Meter,Cooling:EnergyTransfer:Zone:ALL_ST=CLASSROOM/LECTURE HALL/TRAINING ROOM OTHER_FL=BUILDING STORY 2_SCH=D 1,hourly; !- [J]
Output:Meter:Cumulative,Cooling:EnergyTransfer:Zone:ALL_ST=CLASSROOM/LECTURE HALL/TRAINING ROOM OTHER_FL=BUILDING STORY 2_SCH=D 1,hourly; !- [J]
Output:Meter,EnergyTransfer:Zone:ALL_ST=CLASSROOM/LECTURE HALL/TRAINING ROOM OTHER_FL=BUILDING STORY 2_SCH=D 2,hourly; !- [J]
Output:Meter:Cumulative,EnergyTransfer:Zone:ALL_ST=CLASSROOM/LECTURE HALL/TRAINING ROOM OTHER_FL=BUILDING STORY 2_SCH=D 2,hourly; !- [J]
Output:Meter,Heating:EnergyTransfer:Zone:ALL_ST=CLASSROOM/LECTURE HALL/TRAINING ROOM OTHER_FL=BUILDING STORY 2_SCH=D 2,hourly; !- [J]
Output:Meter:Cumulative,Heating:EnergyTransfer:Zone:ALL_ST=CLASSROOM/LECTURE HALL/TRAINING ROOM OTHER_FL=BUILDING STORY 2_SCH=D 2,hourly; !- [J]
Output:Meter,Cooling:EnergyTransfer:Zone:ALL_ST=CLASSROOM/LECTURE HALL/TRAINING ROOM OTHER_FL=BUILDING STORY 2_SCH=D 2,hourly; !- [J]
Output:Meter:Cumulative,Cooling:EnergyTransfer:Zone:ALL_ST=CLASSROOM/LECTURE HALL/TRAINING ROOM OTHER_FL=BUILDING STORY 2_SCH=D 2,hourly; !- [J]
Output:Meter,EnergyTransfer:Zone:ALL_ST=CLASSROOM/LECTURE HALL/TRAINING ROOM OTHER_FL=BUILDING STORY 2_SCH=D 3,hourly; !- [J]
Output:Meter:Cumulative,EnergyTransfer:Zone:ALL_ST=CLASSROOM/LECTURE HALL/TRAINING ROOM OTHER_FL=BUILDING STORY 2_SCH=D 3,hourly; !- [J]
Output:Meter,Heating:EnergyTransfer:Zone:ALL_ST=CLASSROOM/LECTURE HALL/TRAINING ROOM OTHER_FL=BUILDING STORY 2_SCH=D 3,hourly; !- [J]
Output:Meter:Cumulative,Heating:EnergyTransfer:Zone:ALL_ST=CLASSROOM/LECTURE HALL/TRAINING ROOM OTHER_FL=BUILDING STORY 2_SCH=D 3,hourly; !- [J]
Output:Meter,Cooling:EnergyTransfer:Zone:ALL_ST=CLASSROOM/LECTURE HALL/TRAINING ROOM OTHER_FL=BUILDING STORY 2_SCH=D 3,hourly; !- [J]
Output:Meter:Cumulative,Cooling:EnergyTransfer:Zone:ALL_ST=CLASSROOM/LECTURE HALL/TRAINING ROOM OTHER_FL=BUILDING STORY 2_SCH=D 3,hourly; !- [J]
Output:Meter,EnergyTransfer:Zone:ALL_ST=CONFERENCE/MEETING/MULTI-PURPOSE ROOM_FL=BUILDING STORY 1_SCH=C,hourly; !- [J]
Output:Meter:Cumulative,EnergyTransfer:Zone:ALL_ST=CONFERENCE/MEETING/MULTI-PURPOSE ROOM_FL=BUILDING STORY 1_SCH=C,hourly; !- [J]
Output:Meter,Heating:EnergyTransfer:Zone:ALL_ST=CONFERENCE/MEETING/MULTI-PURPOSE ROOM_FL=BUILDING STORY 1_SCH=C,hourly; !- [J]
Output:Meter:Cumulative,Heating:EnergyTransfer:Zone:ALL_ST=CONFERENCE/MEETING/MULTI-PURPOSE ROOM_FL=BUILDING STORY 1_SCH=C,hourly; !- [J]
Output:Meter,Cooling:EnergyTransfer:Zone:ALL_ST=CONFERENCE/MEETING/MULTI-PURPOSE ROOM_FL=BUILDING STORY 1_SCH=C,hourly; !- [J]
Output:Meter:Cumulative,Cooling:EnergyTransfer:Zone:ALL_ST=CONFERENCE/MEETING/MULTI-PURPOSE ROOM_FL=BUILDING STORY 1_SCH=C,hourly; !- [J]
Output:Meter,EnergyTransfer:Zone:ALL_ST=FOOD PREPARATION AREA_FL=BUILDING STORY 1_SCH=B,hourly; !- [J]
Output:Meter:Cumulative,EnergyTransfer:Zone:ALL_ST=FOOD PREPARATION AREA_FL=BUILDING STORY 1_SCH=B,hourly; !- [J]
Output:Meter,Heating:EnergyTransfer:Zone:ALL_ST=FOOD PREPARATION AREA_FL=BUILDING STORY 1_SCH=B,hourly; !- [J]
Output:Meter:Cumulative,Heating:EnergyTransfer:Zone:ALL_ST=FOOD PREPARATION AREA_FL=BUILDING STORY 1_SCH=B,hourly; !- [J]
Output:Meter,Cooling:EnergyTransfer:Zone:ALL_ST=FOOD PREPARATION AREA_FL=BUILDING STORY 1_SCH=B,hourly; !- [J]
Output:Meter:Cumulative,Cooling:EnergyTransfer:Zone:ALL_ST=FOOD PREPARATION AREA_FL=BUILDING STORY 1_SCH=B,hourly; !- [J]
Output:Meter,EnergyTransfer:Zone:ALL_ST=GYMNASIUM/FITNESS CENTRE PLAYING AREA_FL=BUILDING STORY 1_SCH=B,hourly; !- [J]
Output:Meter:Cumulative,EnergyTransfer:Zone:ALL_ST=GYMNASIUM/FITNESS CENTRE PLAYING AREA_FL=BUILDING STORY 1_SCH=B,hourly; !- [J]
Output:Meter,Heating:EnergyTransfer:Zone:ALL_ST=GYMNASIUM/FITNESS CENTRE PLAYING AREA_FL=BUILDING STORY 1_SCH=B,hourly; !- [J]
Output:Meter:Cumulative,Heating:EnergyTransfer:Zone:ALL_ST=GYMNASIUM/FITNESS CENTRE PLAYING AREA_FL=BUILDING STORY 1_SCH=B,hourly; !- [J]
Output:Meter,Cooling:EnergyTransfer:Zone:ALL_ST=GYMNASIUM/FITNESS CENTRE PLAYING AREA_FL=BUILDING STORY 1_SCH=B,hourly; !- [J]
Output:Meter:Cumulative,Cooling:EnergyTransfer:Zone:ALL_ST=GYMNASIUM/FITNESS CENTRE PLAYING AREA_FL=BUILDING STORY 1_SCH=B,hourly; !- [J]
Output:Meter,EnergyTransfer:Zone:ALL_ST=GYMNASIUM/FITNESS CENTRE PLAYING AREA_FL=BUILDING STORY 1_SCH=B 1,hourly; !- [J]
Output:Meter:Cumulative,EnergyTransfer:Zone:ALL_ST=GYMNASIUM/FITNESS CENTRE PLAYING AREA_FL=BUILDING STORY 1_SCH=B 1,hourly; !- [J]
Output:Meter,Heating:EnergyTransfer:Zone:ALL_ST=GYMNASIUM/FITNESS CENTRE PLAYING AREA_FL=BUILDING STORY 1_SCH=B 1,hourly; !- [J]
Output:Meter:Cumulative,Heating:EnergyTransfer:Zone:ALL_ST=GYMNASIUM/FITNESS CENTRE PLAYING AREA_FL=BUILDING STORY 1_SCH=B 1,hourly; !- [J]
Output:Meter,Cooling:EnergyTransfer:Zone:ALL_ST=GYMNASIUM/FITNESS CENTRE PLAYING AREA_FL=BUILDING STORY 1_SCH=B 1,hourly; !- [J]
Output:Meter:Cumulative,Cooling:EnergyTransfer:Zone:ALL_ST=GYMNASIUM/FITNESS CENTRE PLAYING AREA_FL=BUILDING STORY 1_SCH=B 1,hourly; !- [J]
Output:Meter,EnergyTransfer:Zone:ALL_ST=LIBRARY READING AREA_FL=BUILDING STORY 2_SCH=C,hourly; !- [J]
Output:Meter:Cumulative,EnergyTransfer:Zone:ALL_ST=LIBRARY READING AREA_FL=BUILDING STORY 2_SCH=C,hourly; !- [J]
Output:Meter,Heating:EnergyTransfer:Zone:ALL_ST=LIBRARY READING AREA_FL=BUILDING STORY 2_SCH=C,hourly; !- [J]
Output:Meter:Cumulative,Heating:EnergyTransfer:Zone:ALL_ST=LIBRARY READING AREA_FL=BUILDING STORY 2_SCH=C,hourly; !- [J]
Output:Meter,Cooling:EnergyTransfer:Zone:ALL_ST=LIBRARY READING AREA_FL=BUILDING STORY 2_SCH=C,hourly; !- [J]
Output:Meter:Cumulative,Cooling:EnergyTransfer:Zone:ALL_ST=LIBRARY READING AREA_FL=BUILDING STORY 2_SCH=C,hourly; !- [J]
Output:Meter,EnergyTransfer:Zone:ALL_ST=LOBBY - OTHER_FL=BUILDING STORY 1_SCH=C,hourly; !- [J]
Output:Meter:Cumulative,EnergyTransfer:Zone:ALL_ST=LOBBY - OTHER_FL=BUILDING STORY 1_SCH=C,hourly; !- [J]
Output:Meter,Heating:EnergyTransfer:Zone:ALL_ST=LOBBY - OTHER_FL=BUILDING STORY 1_SCH=C,hourly; !- [J]
Output:Meter:Cumulative,Heating:EnergyTransfer:Zone:ALL_ST=LOBBY - OTHER_FL=BUILDING STORY 1_SCH=C,hourly; !- [J]
Output:Meter,Cooling:EnergyTransfer:Zone:ALL_ST=LOBBY - OTHER_FL=BUILDING STORY 1_SCH=C,hourly; !- [J]
Output:Meter:Cumulative,Cooling:EnergyTransfer:Zone:ALL_ST=LOBBY - OTHER_FL=BUILDING STORY 1_SCH=C,hourly; !- [J]
Output:Meter,EnergyTransfer:Zone:ALL_ST=LOBBY - OTHER_FL=BUILDING STORY 2_SCH=C,hourly; !- [J]
Output:Meter:Cumulative,EnergyTransfer:Zone:ALL_ST=LOBBY - OTHER_FL=BUILDING STORY 2_SCH=C,hourly; !- [J]
Output:Meter,Heating:EnergyTransfer:Zone:ALL_ST=LOBBY - OTHER_FL=BUILDING STORY 2_SCH=C,hourly; !- [J]
Output:Meter:Cumulative,Heating:EnergyTransfer:Zone:ALL_ST=LOBBY - OTHER_FL=BUILDING STORY 2_SCH=C,hourly; !- [J]
Output:Meter,Cooling:EnergyTransfer:Zone:ALL_ST=LOBBY - OTHER_FL=BUILDING STORY 2_SCH=C,hourly; !- [J]
Output:Meter:Cumulative,Cooling:EnergyTransfer:Zone:ALL_ST=LOBBY - OTHER_FL=BUILDING STORY 2_SCH=C,hourly; !- [J]
Output:Meter,EnergyTransfer:Zone:ALL_ST=OFFICE ENCLOSED <= 25 M2_FL=BUILDING STORY 1_SCH=A,hourly; !- [J]
Output:Meter:Cumulative,EnergyTransfer:Zone:ALL_ST=OFFICE ENCLOSED <= 25 M2_FL=BUILDING STORY 1_SCH=A,hourly; !- [J]
Output:Meter,Heating:EnergyTransfer:Zone:ALL_ST=OFFICE ENCLOSED <= 25 M2_FL=BUILDING STORY 1_SCH=A,hourly; !- [J]
Output:Meter:Cumulative,Heating:EnergyTransfer:Zone:ALL_ST=OFFICE ENCLOSED <= 25 M2_FL=BUILDING STORY 1_SCH=A,hourly; !- [J]
Output:Meter,Cooling:EnergyTransfer:Zone:ALL_ST=OFFICE ENCLOSED <= 25 M2_FL=BUILDING STORY 1_SCH=A,hourly; !- [J]
Output:Meter:Cumulative,Cooling:EnergyTransfer:Zone:ALL_ST=OFFICE ENCLOSED <= 25 M2_FL=BUILDING STORY 1_SCH=A,hourly; !- [J]
Output:Meter,EnergyTransfer:Zone:ALL_ST=OFFICE ENCLOSED <= 25 M2_FL=BUILDING STORY 2_SCH=A,hourly; !- [J]
Output:Meter:Cumulative,EnergyTransfer:Zone:ALL_ST=OFFICE ENCLOSED <= 25 M2_FL=BUILDING STORY 2_SCH=A,hourly; !- [J]
Output:Meter,Heating:EnergyTransfer:Zone:ALL_ST=OFFICE ENCLOSED <= 25 M2_FL=BUILDING STORY 2_SCH=A,hourly; !- [J]
Output:Meter:Cumulative,Heating:EnergyTransfer:Zone:ALL_ST=OFFICE ENCLOSED <= 25 M2_FL=BUILDING STORY 2_SCH=A,hourly; !- [J]
Output:Meter,Cooling:EnergyTransfer:Zone:ALL_ST=OFFICE ENCLOSED <= 25 M2_FL=BUILDING STORY 2_SCH=A,hourly; !- [J]
Output:Meter:Cumulative,Cooling:EnergyTransfer:Zone:ALL_ST=OFFICE ENCLOSED <= 25 M2_FL=BUILDING STORY 2_SCH=A,hourly; !- [J]
Output:Meter,EnergyTransfer:Zone:WET_ST=WASHROOM - OTHER-SCH-D_FL=BUILDING STORY 1_SCHD,hourly; !- [J]
Output:Meter:Cumulative,EnergyTransfer:Zone:WET_ST=WASHROOM - OTHER-SCH-D_FL=BUILDING STORY 1_SCHD,hourly; !- [J]
Output:Meter,Heating:EnergyTransfer:Zone:WET_ST=WASHROOM - OTHER-SCH-D_FL=BUILDING STORY 1_SCHD,hourly; !- [J]
Output:Meter:Cumulative,Heating:EnergyTransfer:Zone:WET_ST=WASHROOM - OTHER-SCH-D_FL=BUILDING STORY 1_SCHD,hourly; !- [J]
Output:Meter,Cooling:EnergyTransfer:Zone:WET_ST=WASHROOM - OTHER-SCH-D_FL=BUILDING STORY 1_SCHD,hourly; !- [J]
Output:Meter:Cumulative,Cooling:EnergyTransfer:Zone:WET_ST=WASHROOM - OTHER-SCH-D_FL=BUILDING STORY 1_SCHD,hourly; !- [J]
Output:Meter,EnergyTransfer:Zone:WET_ST=WASHROOM - OTHER-SCH-D_FL=BUILDING STORY 2_SCHD,hourly; !- [J]
Output:Meter:Cumulative,EnergyTransfer:Zone:WET_ST=WASHROOM - OTHER-SCH-D_FL=BUILDING STORY 2_SCHD,hourly; !- [J]
Output:Meter,Heating:EnergyTransfer:Zone:WET_ST=WASHROOM - OTHER-SCH-D_FL=BUILDING STORY 2_SCHD,hourly; !- [J]
Output:Meter:Cumulative,Heating:EnergyTransfer:Zone:WET_ST=WASHROOM - OTHER-SCH-D_FL=BUILDING STORY 2_SCHD,hourly; !- [J]
Output:Meter,Cooling:EnergyTransfer:Zone:WET_ST=WASHROOM - OTHER-SCH-D_FL=BUILDING STORY 2_SCHD,hourly; !- [J]
Output:Meter:Cumulative,Cooling:EnergyTransfer:Zone:WET_ST=WASHROOM - OTHER-SCH-D_FL=BUILDING STORY 2_SCHD,hourly; !- [J]
Output:Meter,EnergyTransfer:Zone:WILD_ST=CORRIDOR/TRANSITION AREA OTHER-SCH-D_FL=BUILDING STORY 1_SCH=D,hourly; !- [J]
Output:Meter:Cumulative,EnergyTransfer:Zone:WILD_ST=CORRIDOR/TRANSITION AREA OTHER-SCH-D_FL=BUILDING STORY 1_SCH=D,hourly; !- [J]
Output:Meter,Heating:EnergyTransfer:Zone:WILD_ST=CORRIDOR/TRANSITION AREA OTHER-SCH-D_FL=BUILDING STORY 1_SCH=D,hourly; !- [J]
Output:Meter:Cumulative,Heating:EnergyTransfer:Zone:WILD_ST=CORRIDOR/TRANSITION AREA OTHER-SCH-D_FL=BUILDING STORY 1_SCH=D,hourly; !- [J]
Output:Meter,Cooling:EnergyTransfer:Zone:WILD_ST=CORRIDOR/TRANSITION AREA OTHER-SCH-D_FL=BUILDING STORY 1_SCH=D,hourly; !- [J]
Output:Meter:Cumulative,Cooling:EnergyTransfer:Zone:WILD_ST=CORRIDOR/TRANSITION AREA OTHER-SCH-D_FL=BUILDING STORY 1_SCH=D,hourly; !- [J]
Output:Meter,EnergyTransfer:Zone:WILD_ST=CORRIDOR/TRANSITION AREA OTHER-SCH-D_FL=BUILDING STORY 1_SCH=D 1,hourly; !- [J]
Output:Meter:Cumulative,EnergyTransfer:Zone:WILD_ST=CORRIDOR/TRANSITION AREA OTHER-SCH-D_FL=BUILDING STORY 1_SCH=D 1,hourly; !- [J]
Output:Meter,Heating:EnergyTransfer:Zone:WILD_ST=CORRIDOR/TRANSITION AREA OTHER-SCH-D_FL=BUILDING STORY 1_SCH=D 1,hourly; !- [J]
Output:Meter:Cumulative,Heating:EnergyTransfer:Zone:WILD_ST=CORRIDOR/TRANSITION AREA OTHER-SCH-D_FL=BUILDING STORY 1_SCH=D 1,hourly; !- [J]
Output:Meter,Cooling:EnergyTransfer:Zone:WILD_ST=CORRIDOR/TRANSITION AREA OTHER-SCH-D_FL=BUILDING STORY 1_SCH=D 1,hourly; !- [J]
Output:Meter:Cumulative,Cooling:EnergyTransfer:Zone:WILD_ST=CORRIDOR/TRANSITION AREA OTHER-SCH-D_FL=BUILDING STORY 1_SCH=D 1,hourly; !- [J]
Output:Meter,EnergyTransfer:Zone:WILD_ST=CORRIDOR/TRANSITION AREA OTHER-SCH-D_FL=BUILDING STORY 2_SCH=D,hourly; !- [J]
Output:Meter:Cumulative,EnergyTransfer:Zone:WILD_ST=CORRIDOR/TRANSITION AREA OTHER-SCH-D_FL=BUILDING STORY 2_SCH=D,hourly; !- [J]
Output:Meter,Heating:EnergyTransfer:Zone:WILD_ST=CORRIDOR/TRANSITION AREA OTHER-SCH-D_FL=BUILDING STORY 2_SCH=D,hourly; !- [J]
Output:Meter:Cumulative,Heating:EnergyTransfer:Zone:WILD_ST=CORRIDOR/TRANSITION AREA OTHER-SCH-D_FL=BUILDING STORY 2_SCH=D,hourly; !- [J]
Output:Meter,Cooling:EnergyTransfer:Zone:WILD_ST=CORRIDOR/TRANSITION AREA OTHER-SCH-D_FL=BUILDING STORY 2_SCH=D,hourly; !- [J]
Output:Meter:Cumulative,Cooling:EnergyTransfer:Zone:WILD_ST=CORRIDOR/TRANSITION AREA OTHER-SCH-D_FL=BUILDING STORY 2_SCH=D,hourly; !- [J]
Output:Meter,EnergyTransfer:Zone:WILD_ST=CORRIDOR/TRANSITION AREA OTHER-SCH-D_FL=BUILDING STORY 2_SCH=D 1,hourly; !- [J]
Output:Meter:Cumulative,EnergyTransfer:Zone:WILD_ST=CORRIDOR/TRANSITION AREA OTHER-SCH-D_FL=BUILDING STORY 2_SCH=D 1,hourly; !- [J]
Output:Meter,Heating:EnergyTransfer:Zone:WILD_ST=CORRIDOR/TRANSITION AREA OTHER-SCH-D_FL=BUILDING STORY 2_SCH=D 1,hourly; !- [J]
Output:Meter:Cumulative,Heating:EnergyTransfer:Zone:WILD_ST=CORRIDOR/TRANSITION AREA OTHER-SCH-D_FL=BUILDING STORY 2_SCH=D 1,hourly; !- [J]
Output:Meter,Cooling:EnergyTransfer:Zone:WILD_ST=CORRIDOR/TRANSITION AREA OTHER-SCH-D_FL=BUILDING STORY 2_SCH=D 1,hourly; !- [J]
Output:Meter:Cumulative,Cooling:EnergyTransfer:Zone:WILD_ST=CORRIDOR/TRANSITION AREA OTHER-SCH-D_FL=BUILDING STORY 2_SCH=D 1,hourly; !- [J]
Output:Meter,EnergyTransfer:Zone:WILD_ST=ELECTRICAL/MECHANICAL ROOM-SCH-D_FL=BUILDING STORY 1_SCH=D,hourly; !- [J]
Output:Meter:Cumulative,EnergyTransfer:Zone:WILD_ST=ELECTRICAL/MECHANICAL ROOM-SCH-D_FL=BUILDING STORY 1_SCH=D,hourly; !- [J]
Output:Meter,Heating:EnergyTransfer:Zone:WILD_ST=ELECTRICAL/MECHANICAL ROOM-SCH-D_FL=BUILDING STORY 1_SCH=D,hourly; !- [J]
Output:Meter:Cumulative,Heating:EnergyTransfer:Zone:WILD_ST=ELECTRICAL/MECHANICAL ROOM-SCH-D_FL=BUILDING STORY 1_SCH=D,hourly; !- [J]
Output:Meter,Cooling:EnergyTransfer:Zone:WILD_ST=ELECTRICAL/MECHANICAL ROOM-SCH-D_FL=BUILDING STORY 1_SCH=D,hourly; !- [J]
Output:Meter:Cumulative,Cooling:EnergyTransfer:Zone:WILD_ST=ELECTRICAL/MECHANICAL ROOM-SCH-D_FL=BUILDING STORY 1_SCH=D,hourly; !- [J]
Output:Meter,EnergyTransfer:Zone:WILD_ST=ELECTRICAL/MECHANICAL ROOM-SCH-D_FL=BUILDING STORY 2_SCH=D,hourly; !- [J]
Output:Meter:Cumulative,EnergyTransfer:Zone:WILD_ST=ELECTRICAL/MECHANICAL ROOM-SCH-D_FL=BUILDING STORY 2_SCH=D,hourly; !- [J]
Output:Meter,Heating:EnergyTransfer:Zone:WILD_ST=ELECTRICAL/MECHANICAL ROOM-SCH-D_FL=BUILDING STORY 2_SCH=D,hourly; !- [J]
Output:Meter:Cumulative,Heating:EnergyTransfer:Zone:WILD_ST=ELECTRICAL/MECHANICAL ROOM-SCH-D_FL=BUILDING STORY 2_SCH=D,hourly; !- [J]
Output:Meter,Cooling:EnergyTransfer:Zone:WILD_ST=ELECTRICAL/MECHANICAL ROOM-SCH-D_FL=BUILDING STORY 2_SCH=D,hourly; !- [J]
Output:Meter:Cumulative,Cooling:EnergyTransfer:Zone:WILD_ST=ELECTRICAL/MECHANICAL ROOM-SCH-D_FL=BUILDING STORY 2_SCH=D,hourly; !- [J]
Output:Meter,EnergyTransfer:Plant,hourly; !- [J]
Output:Meter:Cumulative,EnergyTransfer:Plant,hourly; !- [J]
Output:Meter,WaterSystems:EnergyTransfer,hourly; !- [J]
Output:Meter:Cumulative,WaterSystems:EnergyTransfer,hourly; !- [J]
Output:Meter,General:WaterSystems:EnergyTransfer,hourly; !- [J]
Output:Meter:Cumulative,General:WaterSystems:EnergyTransfer,hourly; !- [J]
Output:Meter,ElectricityPurchased:Facility,hourly; !- [J]
Output:Meter:Cumulative,ElectricityPurchased:Facility,hourly; !- [J]
Output:Meter,ElectricityPurchased:Plant,hourly; !- [J]
Output:Meter:Cumulative,ElectricityPurchased:Plant,hourly; !- [J]
Output:Meter,Cogeneration:ElectricityPurchased,hourly; !- [J]
Output:Meter:Cumulative,Cogeneration:ElectricityPurchased,hourly; !- [J]
Output:Meter,ElectricitySurplusSold:Facility,hourly; !- [J]
Output:Meter:Cumulative,ElectricitySurplusSold:Facility,hourly; !- [J]
Output:Meter,ElectricitySurplusSold:Plant,hourly; !- [J]
Output:Meter:Cumulative,ElectricitySurplusSold:Plant,hourly; !- [J]
Output:Meter,Cogeneration:ElectricitySurplusSold,hourly; !- [J]
Output:Meter:Cumulative,Cogeneration:ElectricitySurplusSold,hourly; !- [J]
Output:Meter,ElectricityNet:Facility,hourly; !- [J]
Output:Meter:Cumulative,ElectricityNet:Facility,hourly; !- [J]
Output:Meter,ElectricityNet:Plant,hourly; !- [J]
Output:Meter:Cumulative,ElectricityNet:Plant,hourly; !- [J]
Output:Meter,Cogeneration:ElectricityNet,hourly; !- [J]
Output:Meter:Cumulative,Cogeneration:ElectricityNet,hourly; !- [J]
Output:Meter,HeatRecoveryForHeating:EnergyTransfer,hourly; !- [J]
Output:Meter:Cumulative,HeatRecoveryForHeating:EnergyTransfer,hourly; !- [J]
Output:Meter,HeatRecoveryForCooling:EnergyTransfer,hourly; !- [J]
Output:Meter:Cumulative,HeatRecoveryForCooling:EnergyTransfer,hourly; !- [J]
Output:Meter,HeatRecovery:Electricity,hourly; !- [J]
Output:Meter:Cumulative,HeatRecovery:Electricity,hourly; !- [J]
Output:Meter,Baseboard:EnergyTransfer,hourly; !- [J]
Output:Meter:Cumulative,Baseboard:EnergyTransfer,hourly; !- [J]
Output:Meter,Heating:Electricity,hourly; !- [J]
Output:Meter:Cumulative,Heating:Electricity,hourly; !- [J]
Output:Meter,HeatingCoils:EnergyTransfer,hourly; !- [J]
Output:Meter:Cumulative,HeatingCoils:EnergyTransfer,hourly; !- [J]
Output:Meter,Pumps:Electricity,hourly; !- [J]
Output:Meter:Cumulative,Pumps:Electricity,hourly; !- [J]
Output:Meter,Carbon Equivalent:Facility,hourly; !- [kg]
Output:Meter:Cumulative,Carbon Equivalent:Facility,hourly; !- [kg]
Output:Meter,CarbonEquivalentEmissions:Carbon Equivalent,hourly; !- [kg]
Output:Meter:Cumulative,CarbonEquivalentEmissions:Carbon Equivalent,hourly; !- [kg]
