Program Version,EnergyPlus, Version 8.9.0-eba93e8e1b, YMD=2019.08.13 18:30
! This file shows details about the branches, nodes, and other
! elements of the flow connections.
! This file is intended for use in "debugging" potential problems
! that may also be detected by the program, but may be more easily
! identified by "eye".
! This file is also intended to support software which draws a
! schematic diagram of the HVAC system.
! ===============================================================
! #Nodes,<Number of Unique Nodes>
 #Nodes,570
! <Node>,<NodeNumber>,<Node Name>,<Node Fluid Type>,<# Times Node Referenced After Definition>
 Node,1,NODE 164,Air,3
 Node,2,NODE 432,Air,3
 Node,3,NODE 431,Air,3
 Node,4,NODE 87,Air,3
 Node,5,NODE 444,Air,3
 Node,6,NODE 443,Air,3
 Node,7,NODE 131,Air,3
 Node,8,NODE 472,Air,3
 Node,9,NODE 471,Air,3
 Node,10,NODE 142,Air,3
 Node,11,NODE 474,Air,3
 Node,12,NODE 473,Air,3
 Node,13,NODE 208,Air,3
 Node,14,NODE 446,Air,3
 Node,15,NODE 445,Air,3
 Node,16,NODE 98,Air,3
 Node,17,NODE 440,Air,3
 Node,18,NODE 439,Air,3
 Node,19,NODE 109,Air,3
 Node,20,NODE 450,Air,3
 Node,21,NODE 449,Air,3
 Node,22,NODE 120,Air,3
 Node,23,NODE 458,Air,3
 Node,24,NODE 457,Air,3
 Node,25,NODE 153,Air,3
 Node,26,NODE 436,Air,3
 Node,27,NODE 435,Air,3
 Node,28,NODE 252,Air,3
 Node,29,NODE 434,Air,3
 Node,30,NODE 433,Air,3
 Node,31,NODE 230,Air,3
 Node,32,NODE 426,Air,3
 Node,33,NODE 425,Air,3
 Node,34,NODE 197,Air,3
 Node,35,NODE 428,Air,3
 Node,36,NODE 427,Air,3
 Node,37,NODE 219,Air,3
 Node,38,NODE 442,Air,3
 Node,39,NODE 476,Air,2
 Node,40,NODE 441,Air,3
 Node,41,NODE 475,Air,2
 Node,42,NODE 175,Air,3
 Node,43,NODE 438,Air,3
 Node,44,NODE 437,Air,3
 Node,45,NODE 59,Air,3
 Node,46,NODE 448,Air,3
 Node,47,NODE 447,Air,3
 Node,48,NODE 75,Air,3
 Node,49,NODE 456,Air,3
 Node,50,NODE 455,Air,3
 Node,51,NODE 186,Air,3
 Node,52,NODE 430,Air,3
 Node,53,NODE 429,Air,3
 Node,54,NODE 241,Air,3
 Node,55,NODE 424,Air,3
 Node,56,NODE 423,Air,3
 Node,57,NODE 8,Air,3
 Node,58,NODE 454,Air,3
 Node,59,NODE 453,Air,3
 Node,60,NODE 18,Air,3
 Node,61,NODE 452,Air,3
 Node,62,NODE 451,Air,3
 Node,63,NODE 38,Air,3
 Node,64,NODE 468,Air,3
 Node,65,NODE 467,Air,3
 Node,66,NODE 41,Air,3
 Node,67,NODE 464,Air,3
 Node,68,NODE 463,Air,3
 Node,69,NODE 27,Air,3
 Node,70,NODE 470,Air,3
 Node,71,NODE 469,Air,3
 Node,72,NODE 44,Air,3
 Node,73,NODE 462,Air,3
 Node,74,NODE 461,Air,3
 Node,75,NODE 47,Air,3
 Node,76,NODE 466,Air,3
 Node,77,NODE 465,Air,3
 Node,78,NODE 50,Air,3
 Node,79,NODE 460,Air,3
 Node,80,NODE 459,Air,3
 Node,81,NODE 161,Air,11
 Node,82,NODE 162,Air,3
 Node,83,NODE 84,Air,11
 Node,84,NODE 85,Air,3
 Node,85,NODE 128,Air,11
 Node,86,NODE 129,Air,3
 Node,87,NODE 139,Air,11
 Node,88,NODE 140,Air,3
 Node,89,NODE 205,Air,11
 Node,90,NODE 206,Air,3
 Node,91,NODE 95,Air,11
 Node,92,NODE 96,Air,3
 Node,93,NODE 106,Air,11
 Node,94,NODE 107,Air,3
 Node,95,NODE 117,Air,11
 Node,96,NODE 118,Air,3
 Node,97,NODE 150,Air,11
 Node,98,NODE 151,Air,3
 Node,99,NODE 249,Air,11
 Node,100,NODE 250,Air,3
 Node,101,NODE 227,Air,11
 Node,102,NODE 228,Air,3
 Node,103,NODE 194,Air,11
 Node,104,NODE 195,Air,3
 Node,105,NODE 216,Air,11
 Node,106,NODE 217,Air,3
 Node,107,NODE 172,Air,11
 Node,108,NODE 173,Air,3
 Node,109,NODE 54,Air,11
 Node,110,NODE 56,Air,3
 Node,111,NODE 71,Air,11
 Node,112,NODE 72,Air,3
 Node,113,NODE 183,Air,11
 Node,114,NODE 184,Air,3
 Node,115,NODE 238,Air,11
 Node,116,NODE 239,Air,3
 Node,117,NODE 3,Air,11
 Node,118,NODE 5,Air,3
 Node,119,NODE 23,Air,11
 Node,120,NODE 24,Air,3
 Node,121,NODE 160,Air,4
 Node,122,NODE 169,Air,8
 Node,123,NODE 168,Air,6
 Node,124,NODE 385,Air,7
 Node,125,NODE 83,Air,4
 Node,126,NODE 92,Air,8
 Node,127,NODE 91,Air,6
 Node,128,NODE 397,Air,7
 Node,129,NODE 127,Air,4
 Node,130,NODE 136,Air,8
 Node,131,NODE 135,Air,6
 Node,132,NODE 419,Air,7
 Node,133,NODE 138,Air,4
 Node,134,NODE 147,Air,8
 Node,135,NODE 146,Air,6
 Node,136,NODE 421,Air,7
 Node,137,NODE 204,Air,4
 Node,138,NODE 213,Air,8
 Node,139,NODE 212,Air,6
 Node,140,NODE 399,Air,7
 Node,141,NODE 94,Air,4
 Node,142,NODE 103,Air,8
 Node,143,NODE 102,Air,6
 Node,144,NODE 393,Air,7
 Node,145,NODE 105,Air,4
 Node,146,NODE 114,Air,8
 Node,147,NODE 113,Air,6
 Node,148,NODE 403,Air,7
 Node,149,NODE 116,Air,4
 Node,150,NODE 125,Air,8
 Node,151,NODE 124,Air,6
 Node,152,NODE 410,Air,7
 Node,153,NODE 149,Air,4
 Node,154,NODE 158,Air,8
 Node,155,NODE 157,Air,6
 Node,156,NODE 389,Air,7
 Node,157,NODE 248,Air,4
 Node,158,NODE 257,Air,8
 Node,159,NODE 256,Air,6
 Node,160,NODE 387,Air,7
 Node,161,NODE 226,Air,4
 Node,162,NODE 235,Air,8
 Node,163,NODE 234,Air,6
 Node,164,NODE 379,Air,7
 Node,165,NODE 193,Air,4
 Node,166,NODE 202,Air,8
 Node,167,NODE 201,Air,6
 Node,168,NODE 381,Air,7
 Node,169,NODE 215,Air,4
 Node,170,NODE 224,Air,8
 Node,171,NODE 223,Air,6
 Node,172,NODE 395,Air,7
 Node,173,NODE 171,Air,4
 Node,174,NODE 180,Air,8
 Node,175,NODE 179,Air,6
 Node,176,NODE 391,Air,7
 Node,177,NODE 53,Air,4
 Node,178,NODE 66,Air,8
 Node,179,NODE 65,Air,6
 Node,180,NODE 401,Air,7
 Node,181,NODE 69,Air,4
 Node,182,NODE 81,Air,8
 Node,183,NODE 80,Air,6
 Node,184,NODE 408,Air,7
 Node,185,NODE 182,Air,4
 Node,186,NODE 191,Air,8
 Node,187,NODE 190,Air,6
 Node,188,NODE 383,Air,7
 Node,189,NODE 237,Air,4
 Node,190,NODE 246,Air,8
 Node,191,NODE 245,Air,6
 Node,192,NODE 337,Air,7
 Node,193,NODE 2,Air,4
 Node,194,NODE 15,Air,8
 Node,195,NODE 14,Air,6
 Node,196,NODE 405,Air,7
 Node,197,NODE 21,Air,4
 Node,198,NODE 35,Air,8
 Node,199,NODE 33,Air,6
 Node,200,NODE 412,Air,7
 Node,201,NODE 259,Water,2
 Node,202,NODE 265,Water,1
 Node,203,NODE 261,Water,2
 Node,204,NODE 266,Water,2
 Node,205,NODE 267,Water,1
 Node,206,NODE 268,Water,1
 Node,207,NODE 270,Water,1
 Node,208,NODE 260,Water,4
 Node,209,NODE 262,Water,2
 Node,210,NODE 271,Water,1
 Node,211,NODE 264,Water,1
 Node,212,NODE 269,Water,1
 Node,213,NODE 273,Water,1
 Node,214,NODE 274,Water,1
 Node,215,NODE 275,Water,1
 Node,216,NODE 276,Water,1
 Node,217,NODE 277,Water,1
 Node,218,NODE 278,Water,1
 Node,219,NODE 279,Water,1
 Node,220,NODE 280,Water,1
 Node,221,NODE 281,Water,1
 Node,222,NODE 282,Water,1
 Node,223,NODE 283,Water,1
 Node,224,NODE 284,Water,1
 Node,225,NODE 285,Water,1
 Node,226,NODE 286,Water,1
 Node,227,NODE 287,Water,1
 Node,228,NODE 288,Water,1
 Node,229,NODE 289,Water,1
 Node,230,NODE 290,Water,1
 Node,231,NODE 291,Water,1
 Node,232,NODE 292,Water,1
 Node,233,NODE 293,Water,1
 Node,234,NODE 294,Water,1
 Node,235,NODE 295,Water,1
 Node,236,NODE 296,Water,1
 Node,237,NODE 297,Water,1
 Node,238,NODE 298,Water,1
 Node,239,NODE 299,Water,1
 Node,240,NODE 300,Water,1
 Node,241,NODE 301,Water,1
 Node,242,NODE 302,Water,1
 Node,243,NODE 303,Water,1
 Node,244,NODE 304,Water,1
 Node,245,NODE 305,Water,1
 Node,246,NODE 306,Water,1
 Node,247,NODE 307,Water,1
 Node,248,NODE 308,Water,1
 Node,249,NODE 309,Water,1
 Node,250,NODE 310,Water,1
 Node,251,NODE 311,Water,1
 Node,252,NODE 312,Water,1
 Node,253,NODE 313,Water,1
 Node,254,NODE 314,Water,1
 Node,255,NODE 315,Water,1
 Node,256,NODE 316,Water,1
 Node,257,NODE 317,Water,1
 Node,258,NODE 318,Water,1
 Node,259,NODE 319,Water,1
 Node,260,NODE 320,Water,1
 Node,261,NODE 321,Water,1
 Node,262,NODE 322,Water,1
 Node,263,NODE 323,Water,1
 Node,264,NODE 324,Water,1
 Node,265,NODE 325,Water,1
 Node,266,NODE 326,Water,1
 Node,267,NODE 327,Water,1
 Node,268,NODE 328,Water,1
 Node,269,NODE 329,Water,1
 Node,270,NODE 330,Water,1
 Node,271,NODE 331,Water,1
 Node,272,NODE 332,Water,1
 Node,273,NODE 333,Water,1
 Node,274,NODE 334,Water,1
 Node,275,NODE 335,Water,1
 Node,276,NODE 336,Water,1
 Node,277,MAIN SERVICE WATER LOOP DEMAND BYPASS PIPE INLET NODE,Water,1
 Node,278,MAIN SERVICE WATER LOOP DEMAND BYPASS PIPE OUTLET NODE,Water,1
 Node,279,NODE 272,Water,1
 Node,280,NODE 263,Water,2
 Node,281,NODE 34,Air,0
 Node,282,NODE 170,Air,1
 Node,283,NODE 13,Air,0
 Node,284,NODE 93,Air,1
 Node,285,NODE 25,Air,0
 Node,286,NODE 137,Air,1
 Node,287,NODE 28,Air,0
 Node,288,NODE 148,Air,1
 Node,289,NODE 46,Air,0
 Node,290,NODE 214,Air,1
 Node,291,NODE 16,Air,0
 Node,292,NODE 104,Air,1
 Node,293,NODE 19,Air,0
 Node,294,NODE 115,Air,1
 Node,295,NODE 22,Air,0
 Node,296,NODE 126,Air,1
 Node,297,NODE 31,Air,0
 Node,298,NODE 159,Air,1
 Node,299,NODE 58,Air,0
 Node,300,NODE 258,Air,1
 Node,301,NODE 52,Air,0
 Node,302,NODE 236,Air,1
 Node,303,NODE 43,Air,0
 Node,304,NODE 203,Air,1
 Node,305,NODE 49,Air,0
 Node,306,NODE 225,Air,1
 Node,307,NODE 37,Air,0
 Node,308,NODE 181,Air,1
 Node,309,NODE 7,Air,0
 Node,310,NODE 68,Air,1
 Node,311,NODE 10,Air,0
 Node,312,NODE 82,Air,1
 Node,313,NODE 40,Air,0
 Node,314,NODE 192,Air,1
 Node,315,NODE 55,Air,0
 Node,316,NODE 247,Air,1
 Node,317,NODE 1,Air,0
 Node,318,NODE 17,Air,1
 Node,319,NODE 4,Air,0
 Node,320,NODE 20,Air,1
 Node,321,NODE 64,Air,0
 Node,322,NODE 39,Air,1
 Node,323,NODE 67,Air,0
 Node,324,NODE 42,Air,1
 Node,325,NODE 61,Air,0
 Node,326,NODE 36,Air,1
 Node,327,NODE 70,Air,0
 Node,328,NODE 45,Air,1
 Node,329,NODE 73,Air,0
 Node,330,NODE 48,Air,1
 Node,331,NODE 76,Air,0
 Node,332,NODE 51,Air,1
 Node,333,NODE 163,Air,2
 Node,334,NODE 86,Air,2
 Node,335,NODE 130,Air,2
 Node,336,NODE 141,Air,2
 Node,337,NODE 207,Air,2
 Node,338,NODE 97,Air,2
 Node,339,NODE 108,Air,2
 Node,340,NODE 119,Air,2
 Node,341,NODE 152,Air,2
 Node,342,NODE 251,Air,2
 Node,343,NODE 229,Air,2
 Node,344,NODE 196,Air,2
 Node,345,NODE 218,Air,2
 Node,346,NODE 174,Air,2
 Node,347,NODE 57,Air,2
 Node,348,NODE 74,Air,2
 Node,349,NODE 185,Air,2
 Node,350,NODE 240,Air,2
 Node,351,NODE 6,Air,2
 Node,352,NODE 26,Air,2
 Node,353,536GAL ELECTRICITY WATER HEATER - 1515KBTU/HR 1.0 THERM EFF ASHPWH TANK OUTLET - CONDENSER INLET,Water,2
 Node,354,536GAL ELECTRICITY WATER HEATER - 1515KBTU/HR 1.0 THERM EFF ASHPWH CONDENSER OUTLET - TANK INLET,Water,2
 Node,355,536GAL ELECTRICITY WATER HEATER - 1515KBTU/HR 1.0 THERM EFF ASHPWH MIXER OUTLET - EVAP INLET,Air,1
 Node,356,536GAL ELECTRICITY WATER HEATER - 1515KBTU/HR 1.0 THERM EFF ASHPWH EVAP OUTLET - FAN INLET,Air,1
 Node,357,ALL_ST=AUDIENCE SEATING AREA PERMANENT - AUDITORIUM_FL=BUILDING STORY 1_SCH=C ERV DOAS OA NODE,Air,2
 Node,358,ALL_ST=CLASSROOM/LECTURE HALL/TRAINING ROOM OTHER_FL=BUILDING STORY 1_SCH=D ERV DOAS OA NODE,Air,2
 Node,359,ALL_ST=CLASSROOM/LECTURE HALL/TRAINING ROOM OTHER_FL=BUILDING STORY 1_SCH=D 1 ERV DOAS OA NODE,Air,2
 Node,360,ALL_ST=CLASSROOM/LECTURE HALL/TRAINING ROOM OTHER_FL=BUILDING STORY 1_SCH=D 2 ERV DOAS OA NODE,Air,2
 Node,361,ALL_ST=CLASSROOM/LECTURE HALL/TRAINING ROOM OTHER_FL=BUILDING STORY 1_SCH=D 3 ERV DOAS OA NODE,Air,2
 Node,362,ALL_ST=CLASSROOM/LECTURE HALL/TRAINING ROOM OTHER_FL=BUILDING STORY 2_SCH=D ERV DOAS OA NODE,Air,2
 Node,363,ALL_ST=CLASSROOM/LECTURE HALL/TRAINING ROOM OTHER_FL=BUILDING STORY 2_SCH=D 1 ERV DOAS OA NODE,Air,2
 Node,364,ALL_ST=CLASSROOM/LECTURE HALL/TRAINING ROOM OTHER_FL=BUILDING STORY 2_SCH=D 2 ERV DOAS OA NODE,Air,2
 Node,365,ALL_ST=CLASSROOM/LECTURE HALL/TRAINING ROOM OTHER_FL=BUILDING STORY 2_SCH=D 3 ERV DOAS OA NODE,Air,2
 Node,366,ALL_ST=CONFERENCE/MEETING/MULTI-PURPOSE ROOM_FL=BUILDING STORY 1_SCH=C ERV DOAS OA NODE,Air,2
 Node,367,ALL_ST=FOOD PREPARATION AREA_FL=BUILDING STORY 1_SCH=B ERV DOAS OA NODE,Air,2
 Node,368,ALL_ST=GYMNASIUM/FITNESS CENTRE PLAYING AREA_FL=BUILDING STORY 1_SCH=B ERV DOAS OA NODE,Air,2
 Node,369,ALL_ST=GYMNASIUM/FITNESS CENTRE PLAYING AREA_FL=BUILDING STORY 1_SCH=B 1 ERV DOAS OA NODE,Air,2
 Node,370,ALL_ST=LIBRARY READING AREA_FL=BUILDING STORY 2_SCH=C ERV DOAS OA NODE,Air,2
 Node,371,ALL_ST=LOBBY - OTHER_FL=BUILDING STORY 1_SCH=C ERV DOAS OA NODE,Air,2
 Node,372,ALL_ST=LOBBY - OTHER_FL=BUILDING STORY 2_SCH=C ERV DOAS OA NODE,Air,2
 Node,373,ALL_ST=OFFICE ENCLOSED <= 25 M2_FL=BUILDING STORY 1_SCH=A ERV DOAS OA NODE,Air,2
 Node,374,ALL_ST=OFFICE ENCLOSED <= 25 M2_FL=BUILDING STORY 2_SCH=A ERV DOAS OA NODE,Air,2
 Node,375,WET_ST=WASHROOM - OTHER-SCH-D_FL=BUILDING STORY 1_SCHD ERV DOAS OA NODE,Air,2
 Node,376,WET_ST=WASHROOM - OTHER-SCH-D_FL=BUILDING STORY 2_SCHD ERV DOAS OA NODE,Air,2
 Node,377,WILD_ST=CORRIDOR/TRANSITION AREA OTHER-SCH-D_FL=BUILDING STORY 1_SCH=D ERV DOAS OA NODE,Air,2
 Node,378,WILD_ST=CORRIDOR/TRANSITION AREA OTHER-SCH-D_FL=BUILDING STORY 1_SCH=D 1 ERV DOAS OA NODE,Air,2
 Node,379,WILD_ST=CORRIDOR/TRANSITION AREA OTHER-SCH-D_FL=BUILDING STORY 2_SCH=D ERV DOAS OA NODE,Air,2
 Node,380,WILD_ST=CORRIDOR/TRANSITION AREA OTHER-SCH-D_FL=BUILDING STORY 2_SCH=D 1 ERV DOAS OA NODE,Air,2
 Node,381,WILD_ST=ELECTRICAL/MECHANICAL ROOM-SCH-D_FL=BUILDING STORY 1_SCH=D ERV DOAS OA NODE,Air,2
 Node,382,WILD_ST=ELECTRICAL/MECHANICAL ROOM-SCH-D_FL=BUILDING STORY 2_SCH=D ERV DOAS OA NODE,Air,2
 Node,383,NODE 165,Air,3
 Node,384,NODE 88,Air,3
 Node,385,NODE 132,Air,3
 Node,386,NODE 143,Air,3
 Node,387,NODE 209,Air,3
 Node,388,NODE 99,Air,3
 Node,389,NODE 110,Air,3
 Node,390,NODE 121,Air,3
 Node,391,NODE 154,Air,3
 Node,392,NODE 253,Air,3
 Node,393,NODE 231,Air,3
 Node,394,NODE 198,Air,3
 Node,395,NODE 220,Air,3
 Node,396,NODE 176,Air,3
 Node,397,NODE 60,Air,3
 Node,398,NODE 77,Air,3
 Node,399,NODE 187,Air,3
 Node,400,NODE 242,Air,3
 Node,401,NODE 9,Air,3
 Node,402,NODE 29,Air,3
 Node,403,MODEL OUTDOOR AIR NODE,Air,0
 Node,404,ALL_ST=AUDIENCE SEATING AREA PERMANENT - AUDITORIUM_FL=BUILDING STORY 1_SCH=C ERV DOAS SUPPLY FAN INLET NODE,Air,1
 Node,405,ALL_ST=AUDIENCE SEATING AREA PERMANENT - AUDITORIUM_FL=BUILDING STORY 1_SCH=C ERV DOAS EXHAUST FAN INLET NODE,Air,1
 Node,406,ALL_ST=AUDIENCE SEATING AREA PERMANENT - AUDITORIUM_FL=BUILDING STORY 1_SCH=C ERV DOAS EXHAUST FAN OUTLET NODE,Air,1
 Node,407,ALL_ST=CLASSROOM/LECTURE HALL/TRAINING ROOM OTHER_FL=BUILDING STORY 1_SCH=D ERV DOAS SUPPLY FAN INLET NODE,Air,1
 Node,408,ALL_ST=CLASSROOM/LECTURE HALL/TRAINING ROOM OTHER_FL=BUILDING STORY 1_SCH=D ERV DOAS EXHAUST FAN INLET NODE,Air,1
 Node,409,ALL_ST=CLASSROOM/LECTURE HALL/TRAINING ROOM OTHER_FL=BUILDING STORY 1_SCH=D ERV DOAS EXHAUST FAN OUTLET NODE,Air,1
 Node,410,ALL_ST=CLASSROOM/LECTURE HALL/TRAINING ROOM OTHER_FL=BUILDING STORY 1_SCH=D 1 ERV DOAS SUPPLY FAN INLET NODE,Air,1
 Node,411,ALL_ST=CLASSROOM/LECTURE HALL/TRAINING ROOM OTHER_FL=BUILDING STORY 1_SCH=D 1 ERV DOAS EXHAUST FAN INLET NODE,Air,1
 Node,412,ALL_ST=CLASSROOM/LECTURE HALL/TRAINING ROOM OTHER_FL=BUILDING STORY 1_SCH=D 1 ERV DOAS EXHAUST FAN OUTLET NODE,Air,1
 Node,413,ALL_ST=CLASSROOM/LECTURE HALL/TRAINING ROOM OTHER_FL=BUILDING STORY 1_SCH=D 2 ERV DOAS SUPPLY FAN INLET NODE,Air,1
 Node,414,ALL_ST=CLASSROOM/LECTURE HALL/TRAINING ROOM OTHER_FL=BUILDING STORY 1_SCH=D 2 ERV DOAS EXHAUST FAN INLET NODE,Air,1
 Node,415,ALL_ST=CLASSROOM/LECTURE HALL/TRAINING ROOM OTHER_FL=BUILDING STORY 1_SCH=D 2 ERV DOAS EXHAUST FAN OUTLET NODE,Air,1
 Node,416,ALL_ST=CLASSROOM/LECTURE HALL/TRAINING ROOM OTHER_FL=BUILDING STORY 1_SCH=D 3 ERV DOAS SUPPLY FAN INLET NODE,Air,1
 Node,417,ALL_ST=CLASSROOM/LECTURE HALL/TRAINING ROOM OTHER_FL=BUILDING STORY 1_SCH=D 3 ERV DOAS EXHAUST FAN INLET NODE,Air,1
 Node,418,ALL_ST=CLASSROOM/LECTURE HALL/TRAINING ROOM OTHER_FL=BUILDING STORY 1_SCH=D 3 ERV DOAS EXHAUST FAN OUTLET NODE,Air,1
 Node,419,ALL_ST=CLASSROOM/LECTURE HALL/TRAINING ROOM OTHER_FL=BUILDING STORY 2_SCH=D ERV DOAS SUPPLY FAN INLET NODE,Air,1
 Node,420,ALL_ST=CLASSROOM/LECTURE HALL/TRAINING ROOM OTHER_FL=BUILDING STORY 2_SCH=D ERV DOAS EXHAUST FAN INLET NODE,Air,1
 Node,421,ALL_ST=CLASSROOM/LECTURE HALL/TRAINING ROOM OTHER_FL=BUILDING STORY 2_SCH=D ERV DOAS EXHAUST FAN OUTLET NODE,Air,1
 Node,422,ALL_ST=CLASSROOM/LECTURE HALL/TRAINING ROOM OTHER_FL=BUILDING STORY 2_SCH=D 1 ERV DOAS SUPPLY FAN INLET NODE,Air,1
 Node,423,ALL_ST=CLASSROOM/LECTURE HALL/TRAINING ROOM OTHER_FL=BUILDING STORY 2_SCH=D 1 ERV DOAS EXHAUST FAN INLET NODE,Air,1
 Node,424,ALL_ST=CLASSROOM/LECTURE HALL/TRAINING ROOM OTHER_FL=BUILDING STORY 2_SCH=D 1 ERV DOAS EXHAUST FAN OUTLET NODE,Air,1
 Node,425,ALL_ST=CLASSROOM/LECTURE HALL/TRAINING ROOM OTHER_FL=BUILDING STORY 2_SCH=D 2 ERV DOAS SUPPLY FAN INLET NODE,Air,1
 Node,426,ALL_ST=CLASSROOM/LECTURE HALL/TRAINING ROOM OTHER_FL=BUILDING STORY 2_SCH=D 2 ERV DOAS EXHAUST FAN INLET NODE,Air,1
 Node,427,ALL_ST=CLASSROOM/LECTURE HALL/TRAINING ROOM OTHER_FL=BUILDING STORY 2_SCH=D 2 ERV DOAS EXHAUST FAN OUTLET NODE,Air,1
 Node,428,ALL_ST=CLASSROOM/LECTURE HALL/TRAINING ROOM OTHER_FL=BUILDING STORY 2_SCH=D 3 ERV DOAS SUPPLY FAN INLET NODE,Air,1
 Node,429,ALL_ST=CLASSROOM/LECTURE HALL/TRAINING ROOM OTHER_FL=BUILDING STORY 2_SCH=D 3 ERV DOAS EXHAUST FAN INLET NODE,Air,1
 Node,430,ALL_ST=CLASSROOM/LECTURE HALL/TRAINING ROOM OTHER_FL=BUILDING STORY 2_SCH=D 3 ERV DOAS EXHAUST FAN OUTLET NODE,Air,1
 Node,431,ALL_ST=CONFERENCE/MEETING/MULTI-PURPOSE ROOM_FL=BUILDING STORY 1_SCH=C ERV DOAS SUPPLY FAN INLET NODE,Air,1
 Node,432,ALL_ST=CONFERENCE/MEETING/MULTI-PURPOSE ROOM_FL=BUILDING STORY 1_SCH=C ERV DOAS EXHAUST FAN INLET NODE,Air,1
 Node,433,ALL_ST=CONFERENCE/MEETING/MULTI-PURPOSE ROOM_FL=BUILDING STORY 1_SCH=C ERV DOAS EXHAUST FAN OUTLET NODE,Air,1
 Node,434,ALL_ST=FOOD PREPARATION AREA_FL=BUILDING STORY 1_SCH=B ERV DOAS SUPPLY FAN INLET NODE,Air,1
 Node,435,ALL_ST=FOOD PREPARATION AREA_FL=BUILDING STORY 1_SCH=B ERV DOAS EXHAUST FAN INLET NODE,Air,1
 Node,436,ALL_ST=FOOD PREPARATION AREA_FL=BUILDING STORY 1_SCH=B ERV DOAS EXHAUST FAN OUTLET NODE,Air,1
 Node,437,ALL_ST=GYMNASIUM/FITNESS CENTRE PLAYING AREA_FL=BUILDING STORY 1_SCH=B ERV DOAS SUPPLY FAN INLET NODE,Air,1
 Node,438,ALL_ST=GYMNASIUM/FITNESS CENTRE PLAYING AREA_FL=BUILDING STORY 1_SCH=B ERV DOAS EXHAUST FAN INLET NODE,Air,1
 Node,439,ALL_ST=GYMNASIUM/FITNESS CENTRE PLAYING AREA_FL=BUILDING STORY 1_SCH=B ERV DOAS EXHAUST FAN OUTLET NODE,Air,1
 Node,440,536GAL ELECTRICITY WATER HEATER - 1515KBTU/HR 1.0 THERM EFF ASHPWH FAN OUTLET - SPLITTER INLET,Air,1
 Node,441,ALL_ST=GYMNASIUM/FITNESS CENTRE PLAYING AREA_FL=BUILDING STORY 1_SCH=B 1 ERV DOAS SUPPLY FAN INLET NODE,Air,1
 Node,442,ALL_ST=GYMNASIUM/FITNESS CENTRE PLAYING AREA_FL=BUILDING STORY 1_SCH=B 1 ERV DOAS EXHAUST FAN INLET NODE,Air,1
 Node,443,ALL_ST=GYMNASIUM/FITNESS CENTRE PLAYING AREA_FL=BUILDING STORY 1_SCH=B 1 ERV DOAS EXHAUST FAN OUTLET NODE,Air,1
 Node,444,ALL_ST=LIBRARY READING AREA_FL=BUILDING STORY 2_SCH=C ERV DOAS SUPPLY FAN INLET NODE,Air,1
 Node,445,ALL_ST=LIBRARY READING AREA_FL=BUILDING STORY 2_SCH=C ERV DOAS EXHAUST FAN INLET NODE,Air,1
 Node,446,ALL_ST=LIBRARY READING AREA_FL=BUILDING STORY 2_SCH=C ERV DOAS EXHAUST FAN OUTLET NODE,Air,1
 Node,447,ALL_ST=LOBBY - OTHER_FL=BUILDING STORY 1_SCH=C ERV DOAS SUPPLY FAN INLET NODE,Air,1
 Node,448,ALL_ST=LOBBY - OTHER_FL=BUILDING STORY 1_SCH=C ERV DOAS EXHAUST FAN INLET NODE,Air,1
 Node,449,ALL_ST=LOBBY - OTHER_FL=BUILDING STORY 1_SCH=C ERV DOAS EXHAUST FAN OUTLET NODE,Air,1
 Node,450,ALL_ST=LOBBY - OTHER_FL=BUILDING STORY 2_SCH=C ERV DOAS SUPPLY FAN INLET NODE,Air,1
 Node,451,ALL_ST=LOBBY - OTHER_FL=BUILDING STORY 2_SCH=C ERV DOAS EXHAUST FAN INLET NODE,Air,1
 Node,452,ALL_ST=LOBBY - OTHER_FL=BUILDING STORY 2_SCH=C ERV DOAS EXHAUST FAN OUTLET NODE,Air,1
 Node,453,ALL_ST=OFFICE ENCLOSED <= 25 M2_FL=BUILDING STORY 1_SCH=A ERV DOAS SUPPLY FAN INLET NODE,Air,1
 Node,454,ALL_ST=OFFICE ENCLOSED <= 25 M2_FL=BUILDING STORY 1_SCH=A ERV DOAS EXHAUST FAN INLET NODE,Air,1
 Node,455,ALL_ST=OFFICE ENCLOSED <= 25 M2_FL=BUILDING STORY 1_SCH=A ERV DOAS EXHAUST FAN OUTLET NODE,Air,1
 Node,456,ALL_ST=OFFICE ENCLOSED <= 25 M2_FL=BUILDING STORY 2_SCH=A ERV DOAS SUPPLY FAN INLET NODE,Air,1
 Node,457,ALL_ST=OFFICE ENCLOSED <= 25 M2_FL=BUILDING STORY 2_SCH=A ERV DOAS EXHAUST FAN INLET NODE,Air,1
 Node,458,ALL_ST=OFFICE ENCLOSED <= 25 M2_FL=BUILDING STORY 2_SCH=A ERV DOAS EXHAUST FAN OUTLET NODE,Air,1
 Node,459,WET_ST=WASHROOM - OTHER-SCH-D_FL=BUILDING STORY 1_SCHD ERV DOAS SUPPLY FAN INLET NODE,Air,1
 Node,460,WET_ST=WASHROOM - OTHER-SCH-D_FL=BUILDING STORY 1_SCHD ERV DOAS EXHAUST FAN INLET NODE,Air,1
 Node,461,WET_ST=WASHROOM - OTHER-SCH-D_FL=BUILDING STORY 1_SCHD ERV DOAS EXHAUST FAN OUTLET NODE,Air,1
 Node,462,WET_ST=WASHROOM - OTHER-SCH-D_FL=BUILDING STORY 2_SCHD ERV DOAS SUPPLY FAN INLET NODE,Air,1
 Node,463,WET_ST=WASHROOM - OTHER-SCH-D_FL=BUILDING STORY 2_SCHD ERV DOAS EXHAUST FAN INLET NODE,Air,1
 Node,464,WET_ST=WASHROOM - OTHER-SCH-D_FL=BUILDING STORY 2_SCHD ERV DOAS EXHAUST FAN OUTLET NODE,Air,1
 Node,465,WILD_ST=CORRIDOR/TRANSITION AREA OTHER-SCH-D_FL=BUILDING STORY 1_SCH=D ERV DOAS SUPPLY FAN INLET NODE,Air,1
 Node,466,WILD_ST=CORRIDOR/TRANSITION AREA OTHER-SCH-D_FL=BUILDING STORY 1_SCH=D ERV DOAS EXHAUST FAN INLET NODE,Air,1
 Node,467,WILD_ST=CORRIDOR/TRANSITION AREA OTHER-SCH-D_FL=BUILDING STORY 1_SCH=D ERV DOAS EXHAUST FAN OUTLET NODE,Air,1
 Node,468,WILD_ST=CORRIDOR/TRANSITION AREA OTHER-SCH-D_FL=BUILDING STORY 1_SCH=D 1 ERV DOAS SUPPLY FAN INLET NODE,Air,1
 Node,469,WILD_ST=CORRIDOR/TRANSITION AREA OTHER-SCH-D_FL=BUILDING STORY 1_SCH=D 1 ERV DOAS EXHAUST FAN INLET NODE,Air,1
 Node,470,WILD_ST=CORRIDOR/TRANSITION AREA OTHER-SCH-D_FL=BUILDING STORY 1_SCH=D 1 ERV DOAS EXHAUST FAN OUTLET NODE,Air,1
 Node,471,WILD_ST=CORRIDOR/TRANSITION AREA OTHER-SCH-D_FL=BUILDING STORY 2_SCH=D ERV DOAS SUPPLY FAN INLET NODE,Air,1
 Node,472,WILD_ST=CORRIDOR/TRANSITION AREA OTHER-SCH-D_FL=BUILDING STORY 2_SCH=D ERV DOAS EXHAUST FAN INLET NODE,Air,1
 Node,473,WILD_ST=CORRIDOR/TRANSITION AREA OTHER-SCH-D_FL=BUILDING STORY 2_SCH=D ERV DOAS EXHAUST FAN OUTLET NODE,Air,1
 Node,474,WILD_ST=CORRIDOR/TRANSITION AREA OTHER-SCH-D_FL=BUILDING STORY 2_SCH=D 1 ERV DOAS SUPPLY FAN INLET NODE,Air,1
 Node,475,WILD_ST=CORRIDOR/TRANSITION AREA OTHER-SCH-D_FL=BUILDING STORY 2_SCH=D 1 ERV DOAS EXHAUST FAN INLET NODE,Air,1
 Node,476,WILD_ST=CORRIDOR/TRANSITION AREA OTHER-SCH-D_FL=BUILDING STORY 2_SCH=D 1 ERV DOAS EXHAUST FAN OUTLET NODE,Air,1
 Node,477,WILD_ST=ELECTRICAL/MECHANICAL ROOM-SCH-D_FL=BUILDING STORY 1_SCH=D ERV DOAS SUPPLY FAN INLET NODE,Air,1
 Node,478,WILD_ST=ELECTRICAL/MECHANICAL ROOM-SCH-D_FL=BUILDING STORY 1_SCH=D ERV DOAS EXHAUST FAN INLET NODE,Air,1
 Node,479,WILD_ST=ELECTRICAL/MECHANICAL ROOM-SCH-D_FL=BUILDING STORY 1_SCH=D ERV DOAS EXHAUST FAN OUTLET NODE,Air,1
 Node,480,WILD_ST=ELECTRICAL/MECHANICAL ROOM-SCH-D_FL=BUILDING STORY 2_SCH=D ERV DOAS SUPPLY FAN INLET NODE,Air,1
 Node,481,WILD_ST=ELECTRICAL/MECHANICAL ROOM-SCH-D_FL=BUILDING STORY 2_SCH=D ERV DOAS EXHAUST FAN INLET NODE,Air,1
 Node,482,WILD_ST=ELECTRICAL/MECHANICAL ROOM-SCH-D_FL=BUILDING STORY 2_SCH=D ERV DOAS EXHAUST FAN OUTLET NODE,Air,1
 Node,483,536GAL ELECTRICITY WATER HEATER - 1515KBTU/HR 1.0 THERM EFF ASHPWH OUTDOOR AIR,Air,1
 Node,484,536GAL ELECTRICITY WATER HEATER - 1515KBTU/HR 1.0 THERM EFF ASHPWH EXHAUST AIR,Air,0
 Node,485,NODE 338,Air,2
 Node,486,NODE 340,Air,2
 Node,487,NODE 342,Air,2
 Node,488,NODE 344,Air,2
 Node,489,NODE 346,Air,2
 Node,490,NODE 348,Air,2
 Node,491,NODE 350,Air,2
 Node,492,NODE 352,Air,2
 Node,493,NODE 354,Air,2
 Node,494,NODE 356,Air,2
 Node,495,NODE 358,Air,2
 Node,496,NODE 360,Air,2
 Node,497,NODE 362,Air,2
 Node,498,NODE 364,Air,2
 Node,499,NODE 366,Air,2
 Node,500,NODE 368,Air,2
 Node,501,NODE 370,Air,2
 Node,502,NODE 372,Air,2
 Node,503,NODE 374,Air,2
 Node,504,NODE 376,Air,2
 Node,505,NODE 386,Air,1
 Node,506,NODE 398,Air,1
 Node,507,NODE 420,Air,1
 Node,508,NODE 422,Air,1
 Node,509,NODE 400,Air,1
 Node,510,NODE 394,Air,1
 Node,511,NODE 404,Air,1
 Node,512,NODE 411,Air,1
 Node,513,NODE 390,Air,1
 Node,514,NODE 388,Air,1
 Node,515,NODE 380,Air,1
 Node,516,NODE 382,Air,1
 Node,517,NODE 396,Air,1
 Node,518,NODE 392,Air,1
 Node,519,NODE 402,Air,1
 Node,520,NODE 409,Air,1
 Node,521,NODE 384,Air,1
 Node,522,NODE 378,Air,1
 Node,523,NODE 406,Air,1
 Node,524,NODE 407,Air,1
 Node,525,NODE 413,Air,1
 Node,526,NODE 414,Air,1
 Node,527,NODE 415,Air,1
 Node,528,NODE 416,Air,1
 Node,529,NODE 417,Air,1
 Node,530,NODE 418,Air,1
 Node,531,NODE 339,Air,2
 Node,532,NODE 166,Air,0
 Node,533,NODE 341,Air,2
 Node,534,NODE 89,Air,0
 Node,535,NODE 343,Air,2
 Node,536,NODE 133,Air,0
 Node,537,NODE 345,Air,2
 Node,538,NODE 144,Air,0
 Node,539,NODE 347,Air,2
 Node,540,NODE 210,Air,0
 Node,541,NODE 349,Air,2
 Node,542,NODE 100,Air,0
 Node,543,NODE 351,Air,2
 Node,544,NODE 111,Air,0
 Node,545,NODE 353,Air,2
 Node,546,NODE 122,Air,0
 Node,547,NODE 355,Air,2
 Node,548,NODE 155,Air,0
 Node,549,NODE 357,Air,2
 Node,550,NODE 254,Air,0
 Node,551,NODE 359,Air,2
 Node,552,NODE 232,Air,0
 Node,553,NODE 361,Air,2
 Node,554,NODE 199,Air,0
 Node,555,NODE 363,Air,2
 Node,556,NODE 221,Air,0
 Node,557,NODE 365,Air,2
 Node,558,NODE 177,Air,0
 Node,559,NODE 367,Air,2
 Node,560,NODE 62,Air,0
 Node,561,NODE 369,Air,2
 Node,562,NODE 78,Air,0
 Node,563,NODE 371,Air,2
 Node,564,NODE 188,Air,0
 Node,565,NODE 373,Air,2
 Node,566,NODE 243,Air,0
 Node,567,NODE 375,Air,2
 Node,568,NODE 11,Air,0
 Node,569,NODE 377,Air,2
 Node,570,NODE 30,Air,0
! ===============================================================
! Suspicious nodes have 0 references.  It is normal for some nodes, however.
! Listing nodes with 0 references (culled from previous list):
! <Suspicious Node>,<NodeNumber>,<Node Name>,<Node Fluid Type>,<# Times Node Referenced After Definition>
 Suspicious Node,281,NODE 34,Air,0
 Suspicious Node,283,NODE 13,Air,0
 Suspicious Node,285,NODE 25,Air,0
 Suspicious Node,287,NODE 28,Air,0
 Suspicious Node,289,NODE 46,Air,0
 Suspicious Node,291,NODE 16,Air,0
 Suspicious Node,293,NODE 19,Air,0
 Suspicious Node,295,NODE 22,Air,0
 Suspicious Node,297,NODE 31,Air,0
 Suspicious Node,299,NODE 58,Air,0
 Suspicious Node,301,NODE 52,Air,0
 Suspicious Node,303,NODE 43,Air,0
 Suspicious Node,305,NODE 49,Air,0
 Suspicious Node,307,NODE 37,Air,0
 Suspicious Node,309,NODE 7,Air,0
 Suspicious Node,311,NODE 10,Air,0
 Suspicious Node,313,NODE 40,Air,0
 Suspicious Node,315,NODE 55,Air,0
 Suspicious Node,317,NODE 1,Air,0
 Suspicious Node,319,NODE 4,Air,0
 Suspicious Node,321,NODE 64,Air,0
 Suspicious Node,323,NODE 67,Air,0
 Suspicious Node,325,NODE 61,Air,0
 Suspicious Node,327,NODE 70,Air,0
 Suspicious Node,329,NODE 73,Air,0
 Suspicious Node,331,NODE 76,Air,0
 Suspicious Node,403,MODEL OUTDOOR AIR NODE,Air,0
 Suspicious Node,484,536GAL ELECTRICITY WATER HEATER - 1515KBTU/HR 1.0 THERM EFF ASHPWH EXHAUST AIR,Air,0
 Suspicious Node,532,NODE 166,Air,0
 Suspicious Node,534,NODE 89,Air,0
 Suspicious Node,536,NODE 133,Air,0
 Suspicious Node,538,NODE 144,Air,0
 Suspicious Node,540,NODE 210,Air,0
 Suspicious Node,542,NODE 100,Air,0
 Suspicious Node,544,NODE 111,Air,0
 Suspicious Node,546,NODE 122,Air,0
 Suspicious Node,548,NODE 155,Air,0
 Suspicious Node,550,NODE 254,Air,0
 Suspicious Node,552,NODE 232,Air,0
 Suspicious Node,554,NODE 199,Air,0
 Suspicious Node,556,NODE 221,Air,0
 Suspicious Node,558,NODE 177,Air,0
 Suspicious Node,560,NODE 62,Air,0
 Suspicious Node,562,NODE 78,Air,0
 Suspicious Node,564,NODE 188,Air,0
 Suspicious Node,566,NODE 243,Air,0
 Suspicious Node,568,NODE 11,Air,0
 Suspicious Node,570,NODE 30,Air,0
! ===============================================================
! <#Branch Lists>,<Number of Branch Lists>
 #Branch Lists,22
! <Branch List>,<Branch List Count>,<Branch List Name>,<Loop Name>,<Loop Type>,<Number of Branches>
! <Branch>,<Branch Count>,<Branch Name>,<Loop Name>,<Loop Type>,<Branch Inlet Node Name>,<Branch Outlet Node Name>
 Branch List,1,SYS_3_PSZ ALL_ST=AUDIENCE SEATING AREA PERMANENT - AUDITORIUM_FL=BUILDING STORY 1_SCH=C SUPPLY BRANCHES,SYS_3_PSZ ALL_ST=AUDIENCE SEATING AREA PERMANENT - AUDITORIUM_FL=BUILDING STORY 1_SCH=C,Air,1
   Branch,1,SYS_3_PSZ ALL_ST=AUDIENCE SEATING AREA PERMANENT - AUDITORIUM_FL=BUILDING STORY 1_SCH=C MAIN BRANCH,SYS_3_PSZ ALL_ST=AUDIENCE SEATING AREA PERMANENT - AUDITORIUM_FL=BUILDING STORY 1_SCH=C,Air,NODE 160,NODE 161
 Branch List,2,SYS_3_PSZ ALL_ST=CLASSROOM/LECTURE HALL/TRAINING ROOM OTHER_FL=BUILDING STORY 1_SCH=D SUPPLY BRANCHES,SYS_3_PSZ ALL_ST=CLASSROOM/LECTURE HALL/TRAINING ROOM OTHER_FL=BUILDING STORY 1_SCH=D,Air,1
   Branch,1,SYS_3_PSZ ALL_ST=CLASSROOM/LECTURE HALL/TRAINING ROOM OTHER_FL=BUILDING STORY 1_SCH=D MAIN BRANCH,SYS_3_PSZ ALL_ST=CLASSROOM/LECTURE HALL/TRAINING ROOM OTHER_FL=BUILDING STORY 1_SCH=D,Air,NODE 83,NODE 84
 Branch List,3,SYS_3_PSZ ALL_ST=CLASSROOM/LECTURE HALL/TRAINING ROOM OTHER_FL=BUILDING STORY 1_SCH=D 1 SUPPLY BRANCHES,SYS_3_PSZ ALL_ST=CLASSROOM/LECTURE HALL/TRAINING ROOM OTHER_FL=BUILDING STORY 1_SCH=D 1,Air,1
   Branch,1,SYS_3_PSZ ALL_ST=CLASSROOM/LECTURE HALL/TRAINING ROOM OTHER_FL=BUILDING STORY 1_SCH=D 1 MAIN BRANCH,SYS_3_PSZ ALL_ST=CLASSROOM/LECTURE HALL/TRAINING ROOM OTHER_FL=BUILDING STORY 1_SCH=D 1,Air,NODE 127,NODE 128
 Branch List,4,SYS_3_PSZ ALL_ST=CLASSROOM/LECTURE HALL/TRAINING ROOM OTHER_FL=BUILDING STORY 1_SCH=D 2 SUPPLY BRANCHES,SYS_3_PSZ ALL_ST=CLASSROOM/LECTURE HALL/TRAINING ROOM OTHER_FL=BUILDING STORY 1_SCH=D 2,Air,1
   Branch,1,SYS_3_PSZ ALL_ST=CLASSROOM/LECTURE HALL/TRAINING ROOM OTHER_FL=BUILDING STORY 1_SCH=D 2 MAIN BRANCH,SYS_3_PSZ ALL_ST=CLASSROOM/LECTURE HALL/TRAINING ROOM OTHER_FL=BUILDING STORY 1_SCH=D 2,Air,NODE 138,NODE 139
 Branch List,5,SYS_3_PSZ ALL_ST=CLASSROOM/LECTURE HALL/TRAINING ROOM OTHER_FL=BUILDING STORY 1_SCH=D 3 SUPPLY BRANCHES,SYS_3_PSZ ALL_ST=CLASSROOM/LECTURE HALL/TRAINING ROOM OTHER_FL=BUILDING STORY 1_SCH=D 3,Air,1
   Branch,1,SYS_3_PSZ ALL_ST=CLASSROOM/LECTURE HALL/TRAINING ROOM OTHER_FL=BUILDING STORY 1_SCH=D 3 MAIN BRANCH,SYS_3_PSZ ALL_ST=CLASSROOM/LECTURE HALL/TRAINING ROOM OTHER_FL=BUILDING STORY 1_SCH=D 3,Air,NODE 204,NODE 205
 Branch List,6,SYS_3_PSZ ALL_ST=CLASSROOM/LECTURE HALL/TRAINING ROOM OTHER_FL=BUILDING STORY 2_SCH=D SUPPLY BRANCHES,SYS_3_PSZ ALL_ST=CLASSROOM/LECTURE HALL/TRAINING ROOM OTHER_FL=BUILDING STORY 2_SCH=D,Air,1
   Branch,1,SYS_3_PSZ ALL_ST=CLASSROOM/LECTURE HALL/TRAINING ROOM OTHER_FL=BUILDING STORY 2_SCH=D MAIN BRANCH,SYS_3_PSZ ALL_ST=CLASSROOM/LECTURE HALL/TRAINING ROOM OTHER_FL=BUILDING STORY 2_SCH=D,Air,NODE 94,NODE 95
 Branch List,7,SYS_3_PSZ ALL_ST=CLASSROOM/LECTURE HALL/TRAINING ROOM OTHER_FL=BUILDING STORY 2_SCH=D 1 SUPPLY BRANCHES,SYS_3_PSZ ALL_ST=CLASSROOM/LECTURE HALL/TRAINING ROOM OTHER_FL=BUILDING STORY 2_SCH=D 1,Air,1
   Branch,1,SYS_3_PSZ ALL_ST=CLASSROOM/LECTURE HALL/TRAINING ROOM OTHER_FL=BUILDING STORY 2_SCH=D 1 MAIN BRANCH,SYS_3_PSZ ALL_ST=CLASSROOM/LECTURE HALL/TRAINING ROOM OTHER_FL=BUILDING STORY 2_SCH=D 1,Air,NODE 105,NODE 106
 Branch List,8,SYS_3_PSZ ALL_ST=CLASSROOM/LECTURE HALL/TRAINING ROOM OTHER_FL=BUILDING STORY 2_SCH=D 2 SUPPLY BRANCHES,SYS_3_PSZ ALL_ST=CLASSROOM/LECTURE HALL/TRAINING ROOM OTHER_FL=BUILDING STORY 2_SCH=D 2,Air,1
   Branch,1,SYS_3_PSZ ALL_ST=CLASSROOM/LECTURE HALL/TRAINING ROOM OTHER_FL=BUILDING STORY 2_SCH=D 2 MAIN BRANCH,SYS_3_PSZ ALL_ST=CLASSROOM/LECTURE HALL/TRAINING ROOM OTHER_FL=BUILDING STORY 2_SCH=D 2,Air,NODE 116,NODE 117
 Branch List,9,SYS_3_PSZ ALL_ST=CLASSROOM/LECTURE HALL/TRAINING ROOM OTHER_FL=BUILDING STORY 2_SCH=D 3 SUPPLY BRANCHES,SYS_3_PSZ ALL_ST=CLASSROOM/LECTURE HALL/TRAINING ROOM OTHER_FL=BUILDING STORY 2_SCH=D 3,Air,1
   Branch,1,SYS_3_PSZ ALL_ST=CLASSROOM/LECTURE HALL/TRAINING ROOM OTHER_FL=BUILDING STORY 2_SCH=D 3 MAIN BRANCH,SYS_3_PSZ ALL_ST=CLASSROOM/LECTURE HALL/TRAINING ROOM OTHER_FL=BUILDING STORY 2_SCH=D 3,Air,NODE 149,NODE 150
 Branch List,10,SYS_3_PSZ ALL_ST=CONFERENCE/MEETING/MULTI-PURPOSE ROOM_FL=BUILDING STORY 1_SCH=C SUPPLY BRANCHES,SYS_3_PSZ ALL_ST=CONFERENCE/MEETING/MULTI-PURPOSE ROOM_FL=BUILDING STORY 1_SCH=C,Air,1
   Branch,1,SYS_3_PSZ ALL_ST=CONFERENCE/MEETING/MULTI-PURPOSE ROOM_FL=BUILDING STORY 1_SCH=C MAIN BRANCH,SYS_3_PSZ ALL_ST=CONFERENCE/MEETING/MULTI-PURPOSE ROOM_FL=BUILDING STORY 1_SCH=C,Air,NODE 248,NODE 249
 Branch List,11,SYS_3_PSZ ALL_ST=FOOD PREPARATION AREA_FL=BUILDING STORY 1_SCH=B SUPPLY BRANCHES,SYS_3_PSZ ALL_ST=FOOD PREPARATION AREA_FL=BUILDING STORY 1_SCH=B,Air,1
   Branch,1,SYS_3_PSZ ALL_ST=FOOD PREPARATION AREA_FL=BUILDING STORY 1_SCH=B MAIN BRANCH,SYS_3_PSZ ALL_ST=FOOD PREPARATION AREA_FL=BUILDING STORY 1_SCH=B,Air,NODE 226,NODE 227
 Branch List,12,SYS_3_PSZ ALL_ST=GYMNASIUM/FITNESS CENTRE PLAYING AREA_FL=BUILDING STORY 1_SCH=B SUPPLY BRANCHES,SYS_3_PSZ ALL_ST=GYMNASIUM/FITNESS CENTRE PLAYING AREA_FL=BUILDING STORY 1_SCH=B,Air,1
   Branch,1,SYS_3_PSZ ALL_ST=GYMNASIUM/FITNESS CENTRE PLAYING AREA_FL=BUILDING STORY 1_SCH=B MAIN BRANCH,SYS_3_PSZ ALL_ST=GYMNASIUM/FITNESS CENTRE PLAYING AREA_FL=BUILDING STORY 1_SCH=B,Air,NODE 193,NODE 194
 Branch List,13,SYS_3_PSZ ALL_ST=GYMNASIUM/FITNESS CENTRE PLAYING AREA_FL=BUILDING STORY 1_SCH=B 1 SUPPLY BRANCHES,SYS_3_PSZ ALL_ST=GYMNASIUM/FITNESS CENTRE PLAYING AREA_FL=BUILDING STORY 1_SCH=B 1,Air,1
   Branch,1,SYS_3_PSZ ALL_ST=GYMNASIUM/FITNESS CENTRE PLAYING AREA_FL=BUILDING STORY 1_SCH=B 1 MAIN BRANCH,SYS_3_PSZ ALL_ST=GYMNASIUM/FITNESS CENTRE PLAYING AREA_FL=BUILDING STORY 1_SCH=B 1,Air,NODE 215,NODE 216
 Branch List,14,SYS_3_PSZ ALL_ST=LIBRARY READING AREA_FL=BUILDING STORY 2_SCH=C SUPPLY BRANCHES,SYS_3_PSZ ALL_ST=LIBRARY READING AREA_FL=BUILDING STORY 2_SCH=C,Air,1
   Branch,1,SYS_3_PSZ ALL_ST=LIBRARY READING AREA_FL=BUILDING STORY 2_SCH=C MAIN BRANCH,SYS_3_PSZ ALL_ST=LIBRARY READING AREA_FL=BUILDING STORY 2_SCH=C,Air,NODE 171,NODE 172
 Branch List,15,SYS_3_PSZ ALL_ST=LOBBY - OTHER_FL=BUILDING STORY 1_SCH=C SUPPLY BRANCHES,SYS_3_PSZ ALL_ST=LOBBY - OTHER_FL=BUILDING STORY 1_SCH=C,Air,1
   Branch,1,SYS_3_PSZ ALL_ST=LOBBY - OTHER_FL=BUILDING STORY 1_SCH=C MAIN BRANCH,SYS_3_PSZ ALL_ST=LOBBY - OTHER_FL=BUILDING STORY 1_SCH=C,Air,NODE 53,NODE 54
 Branch List,16,SYS_3_PSZ ALL_ST=LOBBY - OTHER_FL=BUILDING STORY 2_SCH=C SUPPLY BRANCHES,SYS_3_PSZ ALL_ST=LOBBY - OTHER_FL=BUILDING STORY 2_SCH=C,Air,1
   Branch,1,SYS_3_PSZ ALL_ST=LOBBY - OTHER_FL=BUILDING STORY 2_SCH=C MAIN BRANCH,SYS_3_PSZ ALL_ST=LOBBY - OTHER_FL=BUILDING STORY 2_SCH=C,Air,NODE 69,NODE 71
 Branch List,17,SYS_3_PSZ ALL_ST=OFFICE ENCLOSED <= 25 M2_FL=BUILDING STORY 1_SCH=A SUPPLY BRANCHES,SYS_3_PSZ ALL_ST=OFFICE ENCLOSED <= 25 M2_FL=BUILDING STORY 1_SCH=A,Air,1
   Branch,1,SYS_3_PSZ ALL_ST=OFFICE ENCLOSED <= 25 M2_FL=BUILDING STORY 1_SCH=A MAIN BRANCH,SYS_3_PSZ ALL_ST=OFFICE ENCLOSED <= 25 M2_FL=BUILDING STORY 1_SCH=A,Air,NODE 182,NODE 183
 Branch List,18,SYS_3_PSZ ALL_ST=OFFICE ENCLOSED <= 25 M2_FL=BUILDING STORY 2_SCH=A SUPPLY BRANCHES,SYS_3_PSZ ALL_ST=OFFICE ENCLOSED <= 25 M2_FL=BUILDING STORY 2_SCH=A,Air,1
   Branch,1,SYS_3_PSZ ALL_ST=OFFICE ENCLOSED <= 25 M2_FL=BUILDING STORY 2_SCH=A MAIN BRANCH,SYS_3_PSZ ALL_ST=OFFICE ENCLOSED <= 25 M2_FL=BUILDING STORY 2_SCH=A,Air,NODE 237,NODE 238
 Branch List,19,SYS_4_PSZ_WET_ST=WASHROOM - OTHER-SCH-D_FL=BUILDING STORY 1_SCHD SUPPLY BRANCHES,SYS_4_PSZ_WET_ST=WASHROOM - OTHER-SCH-D_FL=BUILDING STORY 1_SCHD,Air,1
   Branch,1,SYS_4_PSZ_WET_ST=WASHROOM - OTHER-SCH-D_FL=BUILDING STORY 1_SCHD MAIN BRANCH,SYS_4_PSZ_WET_ST=WASHROOM - OTHER-SCH-D_FL=BUILDING STORY 1_SCHD,Air,NODE 2,NODE 3
 Branch List,20,SYS_4_PSZ_WILD_ST=CORRIDOR/TRANSITION AREA OTHER-SCH-D_FL=BUILDING STORY 2_SCH=D SUPPLY BRANCHES,SYS_4_PSZ_WILD_ST=CORRIDOR/TRANSITION AREA OTHER-SCH-D_FL=BUILDING STORY 2_SCH=D,Air,1
   Branch,1,SYS_4_PSZ_WILD_ST=CORRIDOR/TRANSITION AREA OTHER-SCH-D_FL=BUILDING STORY 2_SCH=D MAIN BRANCH,SYS_4_PSZ_WILD_ST=CORRIDOR/TRANSITION AREA OTHER-SCH-D_FL=BUILDING STORY 2_SCH=D,Air,NODE 21,NODE 23
 Branch List,21,MAIN SERVICE WATER LOOP SUPPLY BRANCHES,MAIN SERVICE WATER LOOP,Plant Supply,4
   Branch,1,MAIN SERVICE WATER LOOP SUPPLY INLET BRANCH,MAIN SERVICE WATER LOOP,Plant Supply,NODE 259,NODE 265
   Branch,2,MAIN SERVICE WATER LOOP SUPPLY BRANCH 1,MAIN SERVICE WATER LOOP,Plant Supply,NODE 261,NODE 266
   Branch,3,MAIN SERVICE WATER LOOP SUPPLY BRANCH 2,MAIN SERVICE WATER LOOP,Plant Supply,NODE 267,NODE 268
   Branch,4,MAIN SERVICE WATER LOOP SUPPLY OUTLET BRANCH,MAIN SERVICE WATER LOOP,Plant Supply,NODE 270,NODE 260
 Branch List,22,MAIN SERVICE WATER LOOP DEMAND BRANCHES,MAIN SERVICE WATER LOOP,Plant Demand,36
   Branch,1,MAIN SERVICE WATER LOOP DEMAND INLET BRANCH,MAIN SERVICE WATER LOOP,Plant Demand,NODE 262,NODE 271
   Branch,2,MAIN SERVICE WATER LOOP DEMAND BRANCH 1,MAIN SERVICE WATER LOOP,Plant Demand,NODE 264,NODE 269
   Branch,3,MAIN SERVICE WATER LOOP DEMAND BRANCH 2,MAIN SERVICE WATER LOOP,Plant Demand,NODE 273,NODE 274
   Branch,4,MAIN SERVICE WATER LOOP DEMAND BRANCH 3,MAIN SERVICE WATER LOOP,Plant Demand,NODE 275,NODE 276
   Branch,5,MAIN SERVICE WATER LOOP DEMAND BRANCH 4,MAIN SERVICE WATER LOOP,Plant Demand,NODE 277,NODE 278
   Branch,6,MAIN SERVICE WATER LOOP DEMAND BRANCH 5,MAIN SERVICE WATER LOOP,Plant Demand,NODE 279,NODE 280
   Branch,7,MAIN SERVICE WATER LOOP DEMAND BRANCH 6,MAIN SERVICE WATER LOOP,Plant Demand,NODE 281,NODE 282
   Branch,8,MAIN SERVICE WATER LOOP DEMAND BRANCH 7,MAIN SERVICE WATER LOOP,Plant Demand,NODE 283,NODE 284
   Branch,9,MAIN SERVICE WATER LOOP DEMAND BRANCH 8,MAIN SERVICE WATER LOOP,Plant Demand,NODE 285,NODE 286
   Branch,10,MAIN SERVICE WATER LOOP DEMAND BRANCH 9,MAIN SERVICE WATER LOOP,Plant Demand,NODE 287,NODE 288
   Branch,11,MAIN SERVICE WATER LOOP DEMAND BRANCH 10,MAIN SERVICE WATER LOOP,Plant Demand,NODE 289,NODE 290
   Branch,12,MAIN SERVICE WATER LOOP DEMAND BRANCH 11,MAIN SERVICE WATER LOOP,Plant Demand,NODE 291,NODE 292
   Branch,13,MAIN SERVICE WATER LOOP DEMAND BRANCH 12,MAIN SERVICE WATER LOOP,Plant Demand,NODE 293,NODE 294
   Branch,14,MAIN SERVICE WATER LOOP DEMAND BRANCH 13,MAIN SERVICE WATER LOOP,Plant Demand,NODE 295,NODE 296
   Branch,15,MAIN SERVICE WATER LOOP DEMAND BRANCH 14,MAIN SERVICE WATER LOOP,Plant Demand,NODE 297,NODE 298
   Branch,16,MAIN SERVICE WATER LOOP DEMAND BRANCH 15,MAIN SERVICE WATER LOOP,Plant Demand,NODE 299,NODE 300
   Branch,17,MAIN SERVICE WATER LOOP DEMAND BRANCH 16,MAIN SERVICE WATER LOOP,Plant Demand,NODE 301,NODE 302
   Branch,18,MAIN SERVICE WATER LOOP DEMAND BRANCH 17,MAIN SERVICE WATER LOOP,Plant Demand,NODE 303,NODE 304
   Branch,19,MAIN SERVICE WATER LOOP DEMAND BRANCH 18,MAIN SERVICE WATER LOOP,Plant Demand,NODE 305,NODE 306
   Branch,20,MAIN SERVICE WATER LOOP DEMAND BRANCH 19,MAIN SERVICE WATER LOOP,Plant Demand,NODE 307,NODE 308
   Branch,21,MAIN SERVICE WATER LOOP DEMAND BRANCH 20,MAIN SERVICE WATER LOOP,Plant Demand,NODE 309,NODE 310
   Branch,22,MAIN SERVICE WATER LOOP DEMAND BRANCH 21,MAIN SERVICE WATER LOOP,Plant Demand,NODE 311,NODE 312
   Branch,23,MAIN SERVICE WATER LOOP DEMAND BRANCH 22,MAIN SERVICE WATER LOOP,Plant Demand,NODE 313,NODE 314
   Branch,24,MAIN SERVICE WATER LOOP DEMAND BRANCH 23,MAIN SERVICE WATER LOOP,Plant Demand,NODE 315,NODE 316
   Branch,25,MAIN SERVICE WATER LOOP DEMAND BRANCH 24,MAIN SERVICE WATER LOOP,Plant Demand,NODE 317,NODE 318
   Branch,26,MAIN SERVICE WATER LOOP DEMAND BRANCH 25,MAIN SERVICE WATER LOOP,Plant Demand,NODE 319,NODE 320
   Branch,27,MAIN SERVICE WATER LOOP DEMAND BRANCH 26,MAIN SERVICE WATER LOOP,Plant Demand,NODE 321,NODE 322
   Branch,28,MAIN SERVICE WATER LOOP DEMAND BRANCH 27,MAIN SERVICE WATER LOOP,Plant Demand,NODE 323,NODE 324
   Branch,29,MAIN SERVICE WATER LOOP DEMAND BRANCH 28,MAIN SERVICE WATER LOOP,Plant Demand,NODE 325,NODE 326
   Branch,30,MAIN SERVICE WATER LOOP DEMAND BRANCH 29,MAIN SERVICE WATER LOOP,Plant Demand,NODE 327,NODE 328
   Branch,31,MAIN SERVICE WATER LOOP DEMAND BRANCH 30,MAIN SERVICE WATER LOOP,Plant Demand,NODE 329,NODE 330
   Branch,32,MAIN SERVICE WATER LOOP DEMAND BRANCH 31,MAIN SERVICE WATER LOOP,Plant Demand,NODE 331,NODE 332
   Branch,33,MAIN SERVICE WATER LOOP DEMAND BRANCH 32,MAIN SERVICE WATER LOOP,Plant Demand,NODE 333,NODE 334
   Branch,34,MAIN SERVICE WATER LOOP DEMAND BRANCH 33,MAIN SERVICE WATER LOOP,Plant Demand,NODE 335,NODE 336
   Branch,35,MAIN SERVICE WATER LOOP DEMAND BYPASS BRANCH,MAIN SERVICE WATER LOOP,Plant Demand,MAIN SERVICE WATER LOOP DEMAND BYPASS PIPE INLET NODE,MAIN SERVICE WATER LOOP DEMAND BYPASS PIPE OUTLET NODE
   Branch,36,MAIN SERVICE WATER LOOP DEMAND OUTLET BRANCH,MAIN SERVICE WATER LOOP,Plant Demand,NODE 272,NODE 263
! ===============================================================
! <#Supply Air Paths>,<Number of Supply Air Paths>
 #Supply Air Paths,20
! <Supply Air Path>,<Supply Air Path Count>,<Supply Air Path Name>,<AirLoopHVAC Name>
! <#Components on Supply Air Path>,<Number of Components>
! <Supply Air Path Component>,<Component Count>,<Component Type>,<Component Name>,<AirLoopHVAC Name>
! <#Outlet Nodes on Supply Air Path Component>,<Number of Nodes>
! <Supply Air Path Component Nodes>,<Node Count>,<Component Type>,<Component Name>,<Inlet Node Name>,<Outlet Node Name>,<AirLoopHVAC Name>
 Supply Air Path,1,SYS_3_PSZ ALL_ST=AUDIENCE SEATING AREA PERMANENT - AUDITORIUM_FL=BUILDING STORY 1_SCH=C NODE 162 SUPPLY PATH,SYS_3_PSZ ALL_ST=AUDIENCE SEATING AREA PERMANENT - AUDITORIUM_FL=BUILDING STORY 1_SCH=C
   #Components on Supply Air Path,1
   Supply Air Path Component,1,AIRLOOPHVAC:ZONESPLITTER,AIR LOOP HVAC ZONE SPLITTER 12,SYS_3_PSZ ALL_ST=AUDIENCE SEATING AREA PERMANENT - AUDITORIUM_FL=BUILDING STORY 1_SCH=C
     #Outlet Nodes on Supply Air Path Component,1
     Supply Air Path Component Nodes,1,AIRLOOPHVAC:ZONESPLITTER,AIR LOOP HVAC ZONE SPLITTER 12,NODE 162,NODE 386,SYS_3_PSZ ALL_ST=AUDIENCE SEATING AREA PERMANENT - AUDITORIUM_FL=BUILDING STORY 1_SCH=C
! <#Nodes on Supply Air Path>,<Number of Nodes>
! <Supply Air Path Node>,<Node Type>,<Node Count>,<Node Name>,<AirLoopHVAC Name>
#Nodes on Supply Air Path,2
   Supply Air Path Node,Inlet Node,1,NODE 162,SYS_3_PSZ ALL_ST=AUDIENCE SEATING AREA PERMANENT - AUDITORIUM_FL=BUILDING STORY 1_SCH=C
   Supply Air Path Node,Outlet Node,2,NODE 386,SYS_3_PSZ ALL_ST=AUDIENCE SEATING AREA PERMANENT - AUDITORIUM_FL=BUILDING STORY 1_SCH=C
 Supply Air Path,2,SYS_3_PSZ ALL_ST=CLASSROOM/LECTURE HALL/TRAINING ROOM OTHER_FL=BUILDING STORY 1_SCH=D NODE 85 SUPPLY PATH,SYS_3_PSZ ALL_ST=CLASSROOM/LECTURE HALL/TRAINING ROOM OTHER_FL=BUILDING STORY 1_SCH=D
   #Components on Supply Air Path,1
   Supply Air Path Component,1,AIRLOOPHVAC:ZONESPLITTER,AIR LOOP HVAC ZONE SPLITTER 5,SYS_3_PSZ ALL_ST=CLASSROOM/LECTURE HALL/TRAINING ROOM OTHER_FL=BUILDING STORY 1_SCH=D
     #Outlet Nodes on Supply Air Path Component,1
     Supply Air Path Component Nodes,1,AIRLOOPHVAC:ZONESPLITTER,AIR LOOP HVAC ZONE SPLITTER 5,NODE 85,NODE 398,SYS_3_PSZ ALL_ST=CLASSROOM/LECTURE HALL/TRAINING ROOM OTHER_FL=BUILDING STORY 1_SCH=D
! <#Nodes on Supply Air Path>,<Number of Nodes>
! <Supply Air Path Node>,<Node Type>,<Node Count>,<Node Name>,<AirLoopHVAC Name>
#Nodes on Supply Air Path,2
   Supply Air Path Node,Inlet Node,1,NODE 85,SYS_3_PSZ ALL_ST=CLASSROOM/LECTURE HALL/TRAINING ROOM OTHER_FL=BUILDING STORY 1_SCH=D
   Supply Air Path Node,Outlet Node,2,NODE 398,SYS_3_PSZ ALL_ST=CLASSROOM/LECTURE HALL/TRAINING ROOM OTHER_FL=BUILDING STORY 1_SCH=D
 Supply Air Path,3,SYS_3_PSZ ALL_ST=CLASSROOM/LECTURE HALL/TRAINING ROOM OTHER_FL=BUILDING STORY 1_SCH=D 1 NODE 129 SUPPLY PATH,SYS_3_PSZ ALL_ST=CLASSROOM/LECTURE HALL/TRAINING ROOM OTHER_FL=BUILDING STORY 1_SCH=D 1
   #Components on Supply Air Path,1
   Supply Air Path Component,1,AIRLOOPHVAC:ZONESPLITTER,AIR LOOP HVAC ZONE SPLITTER 9,SYS_3_PSZ ALL_ST=CLASSROOM/LECTURE HALL/TRAINING ROOM OTHER_FL=BUILDING STORY 1_SCH=D 1
     #Outlet Nodes on Supply Air Path Component,1
     Supply Air Path Component Nodes,1,AIRLOOPHVAC:ZONESPLITTER,AIR LOOP HVAC ZONE SPLITTER 9,NODE 129,NODE 420,SYS_3_PSZ ALL_ST=CLASSROOM/LECTURE HALL/TRAINING ROOM OTHER_FL=BUILDING STORY 1_SCH=D 1
! <#Nodes on Supply Air Path>,<Number of Nodes>
! <Supply Air Path Node>,<Node Type>,<Node Count>,<Node Name>,<AirLoopHVAC Name>
#Nodes on Supply Air Path,2
   Supply Air Path Node,Inlet Node,1,NODE 129,SYS_3_PSZ ALL_ST=CLASSROOM/LECTURE HALL/TRAINING ROOM OTHER_FL=BUILDING STORY 1_SCH=D 1
   Supply Air Path Node,Outlet Node,2,NODE 420,SYS_3_PSZ ALL_ST=CLASSROOM/LECTURE HALL/TRAINING ROOM OTHER_FL=BUILDING STORY 1_SCH=D 1
 Supply Air Path,4,SYS_3_PSZ ALL_ST=CLASSROOM/LECTURE HALL/TRAINING ROOM OTHER_FL=BUILDING STORY 1_SCH=D 2 NODE 140 SUPPLY PATH,SYS_3_PSZ ALL_ST=CLASSROOM/LECTURE HALL/TRAINING ROOM OTHER_FL=BUILDING STORY 1_SCH=D 2
   #Components on Supply Air Path,1
   Supply Air Path Component,1,AIRLOOPHVAC:ZONESPLITTER,AIR LOOP HVAC ZONE SPLITTER 10,SYS_3_PSZ ALL_ST=CLASSROOM/LECTURE HALL/TRAINING ROOM OTHER_FL=BUILDING STORY 1_SCH=D 2
     #Outlet Nodes on Supply Air Path Component,1
     Supply Air Path Component Nodes,1,AIRLOOPHVAC:ZONESPLITTER,AIR LOOP HVAC ZONE SPLITTER 10,NODE 140,NODE 422,SYS_3_PSZ ALL_ST=CLASSROOM/LECTURE HALL/TRAINING ROOM OTHER_FL=BUILDING STORY 1_SCH=D 2
! <#Nodes on Supply Air Path>,<Number of Nodes>
! <Supply Air Path Node>,<Node Type>,<Node Count>,<Node Name>,<AirLoopHVAC Name>
#Nodes on Supply Air Path,2
   Supply Air Path Node,Inlet Node,1,NODE 140,SYS_3_PSZ ALL_ST=CLASSROOM/LECTURE HALL/TRAINING ROOM OTHER_FL=BUILDING STORY 1_SCH=D 2
   Supply Air Path Node,Outlet Node,2,NODE 422,SYS_3_PSZ ALL_ST=CLASSROOM/LECTURE HALL/TRAINING ROOM OTHER_FL=BUILDING STORY 1_SCH=D 2
 Supply Air Path,5,SYS_3_PSZ ALL_ST=CLASSROOM/LECTURE HALL/TRAINING ROOM OTHER_FL=BUILDING STORY 1_SCH=D 3 NODE 206 SUPPLY PATH,SYS_3_PSZ ALL_ST=CLASSROOM/LECTURE HALL/TRAINING ROOM OTHER_FL=BUILDING STORY 1_SCH=D 3
   #Components on Supply Air Path,1
   Supply Air Path Component,1,AIRLOOPHVAC:ZONESPLITTER,AIR LOOP HVAC ZONE SPLITTER 16,SYS_3_PSZ ALL_ST=CLASSROOM/LECTURE HALL/TRAINING ROOM OTHER_FL=BUILDING STORY 1_SCH=D 3
     #Outlet Nodes on Supply Air Path Component,1
     Supply Air Path Component Nodes,1,AIRLOOPHVAC:ZONESPLITTER,AIR LOOP HVAC ZONE SPLITTER 16,NODE 206,NODE 400,SYS_3_PSZ ALL_ST=CLASSROOM/LECTURE HALL/TRAINING ROOM OTHER_FL=BUILDING STORY 1_SCH=D 3
! <#Nodes on Supply Air Path>,<Number of Nodes>
! <Supply Air Path Node>,<Node Type>,<Node Count>,<Node Name>,<AirLoopHVAC Name>
#Nodes on Supply Air Path,2
   Supply Air Path Node,Inlet Node,1,NODE 206,SYS_3_PSZ ALL_ST=CLASSROOM/LECTURE HALL/TRAINING ROOM OTHER_FL=BUILDING STORY 1_SCH=D 3
   Supply Air Path Node,Outlet Node,2,NODE 400,SYS_3_PSZ ALL_ST=CLASSROOM/LECTURE HALL/TRAINING ROOM OTHER_FL=BUILDING STORY 1_SCH=D 3
 Supply Air Path,6,SYS_3_PSZ ALL_ST=CLASSROOM/LECTURE HALL/TRAINING ROOM OTHER_FL=BUILDING STORY 2_SCH=D NODE 96 SUPPLY PATH,SYS_3_PSZ ALL_ST=CLASSROOM/LECTURE HALL/TRAINING ROOM OTHER_FL=BUILDING STORY 2_SCH=D
   #Components on Supply Air Path,1
   Supply Air Path Component,1,AIRLOOPHVAC:ZONESPLITTER,AIR LOOP HVAC ZONE SPLITTER 6,SYS_3_PSZ ALL_ST=CLASSROOM/LECTURE HALL/TRAINING ROOM OTHER_FL=BUILDING STORY 2_SCH=D
     #Outlet Nodes on Supply Air Path Component,1
     Supply Air Path Component Nodes,1,AIRLOOPHVAC:ZONESPLITTER,AIR LOOP HVAC ZONE SPLITTER 6,NODE 96,NODE 394,SYS_3_PSZ ALL_ST=CLASSROOM/LECTURE HALL/TRAINING ROOM OTHER_FL=BUILDING STORY 2_SCH=D
! <#Nodes on Supply Air Path>,<Number of Nodes>
! <Supply Air Path Node>,<Node Type>,<Node Count>,<Node Name>,<AirLoopHVAC Name>
#Nodes on Supply Air Path,2
   Supply Air Path Node,Inlet Node,1,NODE 96,SYS_3_PSZ ALL_ST=CLASSROOM/LECTURE HALL/TRAINING ROOM OTHER_FL=BUILDING STORY 2_SCH=D
   Supply Air Path Node,Outlet Node,2,NODE 394,SYS_3_PSZ ALL_ST=CLASSROOM/LECTURE HALL/TRAINING ROOM OTHER_FL=BUILDING STORY 2_SCH=D
 Supply Air Path,7,SYS_3_PSZ ALL_ST=CLASSROOM/LECTURE HALL/TRAINING ROOM OTHER_FL=BUILDING STORY 2_SCH=D 1 NODE 107 SUPPLY PATH,SYS_3_PSZ ALL_ST=CLASSROOM/LECTURE HALL/TRAINING ROOM OTHER_FL=BUILDING STORY 2_SCH=D 1
   #Components on Supply Air Path,1
   Supply Air Path Component,1,AIRLOOPHVAC:ZONESPLITTER,AIR LOOP HVAC ZONE SPLITTER 7,SYS_3_PSZ ALL_ST=CLASSROOM/LECTURE HALL/TRAINING ROOM OTHER_FL=BUILDING STORY 2_SCH=D 1
     #Outlet Nodes on Supply Air Path Component,1
     Supply Air Path Component Nodes,1,AIRLOOPHVAC:ZONESPLITTER,AIR LOOP HVAC ZONE SPLITTER 7,NODE 107,NODE 404,SYS_3_PSZ ALL_ST=CLASSROOM/LECTURE HALL/TRAINING ROOM OTHER_FL=BUILDING STORY 2_SCH=D 1
! <#Nodes on Supply Air Path>,<Number of Nodes>
! <Supply Air Path Node>,<Node Type>,<Node Count>,<Node Name>,<AirLoopHVAC Name>
#Nodes on Supply Air Path,2
   Supply Air Path Node,Inlet Node,1,NODE 107,SYS_3_PSZ ALL_ST=CLASSROOM/LECTURE HALL/TRAINING ROOM OTHER_FL=BUILDING STORY 2_SCH=D 1
   Supply Air Path Node,Outlet Node,2,NODE 404,SYS_3_PSZ ALL_ST=CLASSROOM/LECTURE HALL/TRAINING ROOM OTHER_FL=BUILDING STORY 2_SCH=D 1
 Supply Air Path,8,SYS_3_PSZ ALL_ST=CLASSROOM/LECTURE HALL/TRAINING ROOM OTHER_FL=BUILDING STORY 2_SCH=D 2 NODE 118 SUPPLY PATH,SYS_3_PSZ ALL_ST=CLASSROOM/LECTURE HALL/TRAINING ROOM OTHER_FL=BUILDING STORY 2_SCH=D 2
   #Components on Supply Air Path,1
   Supply Air Path Component,1,AIRLOOPHVAC:ZONESPLITTER,AIR LOOP HVAC ZONE SPLITTER 8,SYS_3_PSZ ALL_ST=CLASSROOM/LECTURE HALL/TRAINING ROOM OTHER_FL=BUILDING STORY 2_SCH=D 2
     #Outlet Nodes on Supply Air Path Component,1
     Supply Air Path Component Nodes,1,AIRLOOPHVAC:ZONESPLITTER,AIR LOOP HVAC ZONE SPLITTER 8,NODE 118,NODE 411,SYS_3_PSZ ALL_ST=CLASSROOM/LECTURE HALL/TRAINING ROOM OTHER_FL=BUILDING STORY 2_SCH=D 2
! <#Nodes on Supply Air Path>,<Number of Nodes>
! <Supply Air Path Node>,<Node Type>,<Node Count>,<Node Name>,<AirLoopHVAC Name>
#Nodes on Supply Air Path,2
   Supply Air Path Node,Inlet Node,1,NODE 118,SYS_3_PSZ ALL_ST=CLASSROOM/LECTURE HALL/TRAINING ROOM OTHER_FL=BUILDING STORY 2_SCH=D 2
   Supply Air Path Node,Outlet Node,2,NODE 411,SYS_3_PSZ ALL_ST=CLASSROOM/LECTURE HALL/TRAINING ROOM OTHER_FL=BUILDING STORY 2_SCH=D 2
 Supply Air Path,9,SYS_3_PSZ ALL_ST=CLASSROOM/LECTURE HALL/TRAINING ROOM OTHER_FL=BUILDING STORY 2_SCH=D 3 NODE 151 SUPPLY PATH,SYS_3_PSZ ALL_ST=CLASSROOM/LECTURE HALL/TRAINING ROOM OTHER_FL=BUILDING STORY 2_SCH=D 3
   #Components on Supply Air Path,1
   Supply Air Path Component,1,AIRLOOPHVAC:ZONESPLITTER,AIR LOOP HVAC ZONE SPLITTER 11,SYS_3_PSZ ALL_ST=CLASSROOM/LECTURE HALL/TRAINING ROOM OTHER_FL=BUILDING STORY 2_SCH=D 3
     #Outlet Nodes on Supply Air Path Component,1
     Supply Air Path Component Nodes,1,AIRLOOPHVAC:ZONESPLITTER,AIR LOOP HVAC ZONE SPLITTER 11,NODE 151,NODE 390,SYS_3_PSZ ALL_ST=CLASSROOM/LECTURE HALL/TRAINING ROOM OTHER_FL=BUILDING STORY 2_SCH=D 3
! <#Nodes on Supply Air Path>,<Number of Nodes>
! <Supply Air Path Node>,<Node Type>,<Node Count>,<Node Name>,<AirLoopHVAC Name>
#Nodes on Supply Air Path,2
   Supply Air Path Node,Inlet Node,1,NODE 151,SYS_3_PSZ ALL_ST=CLASSROOM/LECTURE HALL/TRAINING ROOM OTHER_FL=BUILDING STORY 2_SCH=D 3
   Supply Air Path Node,Outlet Node,2,NODE 390,SYS_3_PSZ ALL_ST=CLASSROOM/LECTURE HALL/TRAINING ROOM OTHER_FL=BUILDING STORY 2_SCH=D 3
 Supply Air Path,10,SYS_3_PSZ ALL_ST=CONFERENCE/MEETING/MULTI-PURPOSE ROOM_FL=BUILDING STORY 1_SCH=C NODE 250 SUPPLY PATH,SYS_3_PSZ ALL_ST=CONFERENCE/MEETING/MULTI-PURPOSE ROOM_FL=BUILDING STORY 1_SCH=C
   #Components on Supply Air Path,1
   Supply Air Path Component,1,AIRLOOPHVAC:ZONESPLITTER,AIR LOOP HVAC ZONE SPLITTER 20,SYS_3_PSZ ALL_ST=CONFERENCE/MEETING/MULTI-PURPOSE ROOM_FL=BUILDING STORY 1_SCH=C
     #Outlet Nodes on Supply Air Path Component,1
     Supply Air Path Component Nodes,1,AIRLOOPHVAC:ZONESPLITTER,AIR LOOP HVAC ZONE SPLITTER 20,NODE 250,NODE 388,SYS_3_PSZ ALL_ST=CONFERENCE/MEETING/MULTI-PURPOSE ROOM_FL=BUILDING STORY 1_SCH=C
! <#Nodes on Supply Air Path>,<Number of Nodes>
! <Supply Air Path Node>,<Node Type>,<Node Count>,<Node Name>,<AirLoopHVAC Name>
#Nodes on Supply Air Path,2
   Supply Air Path Node,Inlet Node,1,NODE 250,SYS_3_PSZ ALL_ST=CONFERENCE/MEETING/MULTI-PURPOSE ROOM_FL=BUILDING STORY 1_SCH=C
   Supply Air Path Node,Outlet Node,2,NODE 388,SYS_3_PSZ ALL_ST=CONFERENCE/MEETING/MULTI-PURPOSE ROOM_FL=BUILDING STORY 1_SCH=C
 Supply Air Path,11,SYS_3_PSZ ALL_ST=FOOD PREPARATION AREA_FL=BUILDING STORY 1_SCH=B NODE 228 SUPPLY PATH,SYS_3_PSZ ALL_ST=FOOD PREPARATION AREA_FL=BUILDING STORY 1_SCH=B
   #Components on Supply Air Path,1
   Supply Air Path Component,1,AIRLOOPHVAC:ZONESPLITTER,AIR LOOP HVAC ZONE SPLITTER 18,SYS_3_PSZ ALL_ST=FOOD PREPARATION AREA_FL=BUILDING STORY 1_SCH=B
     #Outlet Nodes on Supply Air Path Component,1
     Supply Air Path Component Nodes,1,AIRLOOPHVAC:ZONESPLITTER,AIR LOOP HVAC ZONE SPLITTER 18,NODE 228,NODE 380,SYS_3_PSZ ALL_ST=FOOD PREPARATION AREA_FL=BUILDING STORY 1_SCH=B
! <#Nodes on Supply Air Path>,<Number of Nodes>
! <Supply Air Path Node>,<Node Type>,<Node Count>,<Node Name>,<AirLoopHVAC Name>
#Nodes on Supply Air Path,2
   Supply Air Path Node,Inlet Node,1,NODE 228,SYS_3_PSZ ALL_ST=FOOD PREPARATION AREA_FL=BUILDING STORY 1_SCH=B
   Supply Air Path Node,Outlet Node,2,NODE 380,SYS_3_PSZ ALL_ST=FOOD PREPARATION AREA_FL=BUILDING STORY 1_SCH=B
 Supply Air Path,12,SYS_3_PSZ ALL_ST=GYMNASIUM/FITNESS CENTRE PLAYING AREA_FL=BUILDING STORY 1_SCH=B NODE 195 SUPPLY PATH,SYS_3_PSZ ALL_ST=GYMNASIUM/FITNESS CENTRE PLAYING AREA_FL=BUILDING STORY 1_SCH=B
   #Components on Supply Air Path,1
   Supply Air Path Component,1,AIRLOOPHVAC:ZONESPLITTER,AIR LOOP HVAC ZONE SPLITTER 15,SYS_3_PSZ ALL_ST=GYMNASIUM/FITNESS CENTRE PLAYING AREA_FL=BUILDING STORY 1_SCH=B
     #Outlet Nodes on Supply Air Path Component,1
     Supply Air Path Component Nodes,1,AIRLOOPHVAC:ZONESPLITTER,AIR LOOP HVAC ZONE SPLITTER 15,NODE 195,NODE 382,SYS_3_PSZ ALL_ST=GYMNASIUM/FITNESS CENTRE PLAYING AREA_FL=BUILDING STORY 1_SCH=B
! <#Nodes on Supply Air Path>,<Number of Nodes>
! <Supply Air Path Node>,<Node Type>,<Node Count>,<Node Name>,<AirLoopHVAC Name>
#Nodes on Supply Air Path,2
   Supply Air Path Node,Inlet Node,1,NODE 195,SYS_3_PSZ ALL_ST=GYMNASIUM/FITNESS CENTRE PLAYING AREA_FL=BUILDING STORY 1_SCH=B
   Supply Air Path Node,Outlet Node,2,NODE 382,SYS_3_PSZ ALL_ST=GYMNASIUM/FITNESS CENTRE PLAYING AREA_FL=BUILDING STORY 1_SCH=B
 Supply Air Path,13,SYS_3_PSZ ALL_ST=GYMNASIUM/FITNESS CENTRE PLAYING AREA_FL=BUILDING STORY 1_SCH=B 1 NODE 217 SUPPLY PATH,SYS_3_PSZ ALL_ST=GYMNASIUM/FITNESS CENTRE PLAYING AREA_FL=BUILDING STORY 1_SCH=B 1
   #Components on Supply Air Path,1
   Supply Air Path Component,1,AIRLOOPHVAC:ZONESPLITTER,AIR LOOP HVAC ZONE SPLITTER 17,SYS_3_PSZ ALL_ST=GYMNASIUM/FITNESS CENTRE PLAYING AREA_FL=BUILDING STORY 1_SCH=B 1
     #Outlet Nodes on Supply Air Path Component,1
     Supply Air Path Component Nodes,1,AIRLOOPHVAC:ZONESPLITTER,AIR LOOP HVAC ZONE SPLITTER 17,NODE 217,NODE 396,SYS_3_PSZ ALL_ST=GYMNASIUM/FITNESS CENTRE PLAYING AREA_FL=BUILDING STORY 1_SCH=B 1
! <#Nodes on Supply Air Path>,<Number of Nodes>
! <Supply Air Path Node>,<Node Type>,<Node Count>,<Node Name>,<AirLoopHVAC Name>
#Nodes on Supply Air Path,2
   Supply Air Path Node,Inlet Node,1,NODE 217,SYS_3_PSZ ALL_ST=GYMNASIUM/FITNESS CENTRE PLAYING AREA_FL=BUILDING STORY 1_SCH=B 1
   Supply Air Path Node,Outlet Node,2,NODE 396,SYS_3_PSZ ALL_ST=GYMNASIUM/FITNESS CENTRE PLAYING AREA_FL=BUILDING STORY 1_SCH=B 1
 Supply Air Path,14,SYS_3_PSZ ALL_ST=LIBRARY READING AREA_FL=BUILDING STORY 2_SCH=C NODE 173 SUPPLY PATH,SYS_3_PSZ ALL_ST=LIBRARY READING AREA_FL=BUILDING STORY 2_SCH=C
   #Components on Supply Air Path,1
   Supply Air Path Component,1,AIRLOOPHVAC:ZONESPLITTER,AIR LOOP HVAC ZONE SPLITTER 13,SYS_3_PSZ ALL_ST=LIBRARY READING AREA_FL=BUILDING STORY 2_SCH=C
     #Outlet Nodes on Supply Air Path Component,1
     Supply Air Path Component Nodes,1,AIRLOOPHVAC:ZONESPLITTER,AIR LOOP HVAC ZONE SPLITTER 13,NODE 173,NODE 392,SYS_3_PSZ ALL_ST=LIBRARY READING AREA_FL=BUILDING STORY 2_SCH=C
! <#Nodes on Supply Air Path>,<Number of Nodes>
! <Supply Air Path Node>,<Node Type>,<Node Count>,<Node Name>,<AirLoopHVAC Name>
#Nodes on Supply Air Path,2
   Supply Air Path Node,Inlet Node,1,NODE 173,SYS_3_PSZ ALL_ST=LIBRARY READING AREA_FL=BUILDING STORY 2_SCH=C
   Supply Air Path Node,Outlet Node,2,NODE 392,SYS_3_PSZ ALL_ST=LIBRARY READING AREA_FL=BUILDING STORY 2_SCH=C
 Supply Air Path,15,SYS_3_PSZ ALL_ST=LOBBY - OTHER_FL=BUILDING STORY 1_SCH=C NODE 56 SUPPLY PATH,SYS_3_PSZ ALL_ST=LOBBY - OTHER_FL=BUILDING STORY 1_SCH=C
   #Components on Supply Air Path,1
   Supply Air Path Component,1,AIRLOOPHVAC:ZONESPLITTER,AIR LOOP HVAC ZONE SPLITTER 3,SYS_3_PSZ ALL_ST=LOBBY - OTHER_FL=BUILDING STORY 1_SCH=C
     #Outlet Nodes on Supply Air Path Component,1
     Supply Air Path Component Nodes,1,AIRLOOPHVAC:ZONESPLITTER,AIR LOOP HVAC ZONE SPLITTER 3,NODE 56,NODE 402,SYS_3_PSZ ALL_ST=LOBBY - OTHER_FL=BUILDING STORY 1_SCH=C
! <#Nodes on Supply Air Path>,<Number of Nodes>
! <Supply Air Path Node>,<Node Type>,<Node Count>,<Node Name>,<AirLoopHVAC Name>
#Nodes on Supply Air Path,2
   Supply Air Path Node,Inlet Node,1,NODE 56,SYS_3_PSZ ALL_ST=LOBBY - OTHER_FL=BUILDING STORY 1_SCH=C
   Supply Air Path Node,Outlet Node,2,NODE 402,SYS_3_PSZ ALL_ST=LOBBY - OTHER_FL=BUILDING STORY 1_SCH=C
 Supply Air Path,16,SYS_3_PSZ ALL_ST=LOBBY - OTHER_FL=BUILDING STORY 2_SCH=C NODE 72 SUPPLY PATH,SYS_3_PSZ ALL_ST=LOBBY - OTHER_FL=BUILDING STORY 2_SCH=C
   #Components on Supply Air Path,1
   Supply Air Path Component,1,AIRLOOPHVAC:ZONESPLITTER,AIR LOOP HVAC ZONE SPLITTER 4,SYS_3_PSZ ALL_ST=LOBBY - OTHER_FL=BUILDING STORY 2_SCH=C
     #Outlet Nodes on Supply Air Path Component,1
     Supply Air Path Component Nodes,1,AIRLOOPHVAC:ZONESPLITTER,AIR LOOP HVAC ZONE SPLITTER 4,NODE 72,NODE 409,SYS_3_PSZ ALL_ST=LOBBY - OTHER_FL=BUILDING STORY 2_SCH=C
! <#Nodes on Supply Air Path>,<Number of Nodes>
! <Supply Air Path Node>,<Node Type>,<Node Count>,<Node Name>,<AirLoopHVAC Name>
#Nodes on Supply Air Path,2
   Supply Air Path Node,Inlet Node,1,NODE 72,SYS_3_PSZ ALL_ST=LOBBY - OTHER_FL=BUILDING STORY 2_SCH=C
   Supply Air Path Node,Outlet Node,2,NODE 409,SYS_3_PSZ ALL_ST=LOBBY - OTHER_FL=BUILDING STORY 2_SCH=C
 Supply Air Path,17,SYS_3_PSZ ALL_ST=OFFICE ENCLOSED <= 25 M2_FL=BUILDING STORY 1_SCH=A NODE 184 SUPPLY PATH,SYS_3_PSZ ALL_ST=OFFICE ENCLOSED <= 25 M2_FL=BUILDING STORY 1_SCH=A
   #Components on Supply Air Path,1
   Supply Air Path Component,1,AIRLOOPHVAC:ZONESPLITTER,AIR LOOP HVAC ZONE SPLITTER 14,SYS_3_PSZ ALL_ST=OFFICE ENCLOSED <= 25 M2_FL=BUILDING STORY 1_SCH=A
     #Outlet Nodes on Supply Air Path Component,1
     Supply Air Path Component Nodes,1,AIRLOOPHVAC:ZONESPLITTER,AIR LOOP HVAC ZONE SPLITTER 14,NODE 184,NODE 384,SYS_3_PSZ ALL_ST=OFFICE ENCLOSED <= 25 M2_FL=BUILDING STORY 1_SCH=A
! <#Nodes on Supply Air Path>,<Number of Nodes>
! <Supply Air Path Node>,<Node Type>,<Node Count>,<Node Name>,<AirLoopHVAC Name>
#Nodes on Supply Air Path,2
   Supply Air Path Node,Inlet Node,1,NODE 184,SYS_3_PSZ ALL_ST=OFFICE ENCLOSED <= 25 M2_FL=BUILDING STORY 1_SCH=A
   Supply Air Path Node,Outlet Node,2,NODE 384,SYS_3_PSZ ALL_ST=OFFICE ENCLOSED <= 25 M2_FL=BUILDING STORY 1_SCH=A
 Supply Air Path,18,SYS_3_PSZ ALL_ST=OFFICE ENCLOSED <= 25 M2_FL=BUILDING STORY 2_SCH=A NODE 239 SUPPLY PATH,SYS_3_PSZ ALL_ST=OFFICE ENCLOSED <= 25 M2_FL=BUILDING STORY 2_SCH=A
   #Components on Supply Air Path,1
   Supply Air Path Component,1,AIRLOOPHVAC:ZONESPLITTER,AIR LOOP HVAC ZONE SPLITTER 19,SYS_3_PSZ ALL_ST=OFFICE ENCLOSED <= 25 M2_FL=BUILDING STORY 2_SCH=A
     #Outlet Nodes on Supply Air Path Component,1
     Supply Air Path Component Nodes,1,AIRLOOPHVAC:ZONESPLITTER,AIR LOOP HVAC ZONE SPLITTER 19,NODE 239,NODE 378,SYS_3_PSZ ALL_ST=OFFICE ENCLOSED <= 25 M2_FL=BUILDING STORY 2_SCH=A
! <#Nodes on Supply Air Path>,<Number of Nodes>
! <Supply Air Path Node>,<Node Type>,<Node Count>,<Node Name>,<AirLoopHVAC Name>
#Nodes on Supply Air Path,2
   Supply Air Path Node,Inlet Node,1,NODE 239,SYS_3_PSZ ALL_ST=OFFICE ENCLOSED <= 25 M2_FL=BUILDING STORY 2_SCH=A
   Supply Air Path Node,Outlet Node,2,NODE 378,SYS_3_PSZ ALL_ST=OFFICE ENCLOSED <= 25 M2_FL=BUILDING STORY 2_SCH=A
 Supply Air Path,19,SYS_4_PSZ_WET_ST=WASHROOM - OTHER-SCH-D_FL=BUILDING STORY 1_SCHD NODE 5 SUPPLY PATH,SYS_4_PSZ_WET_ST=WASHROOM - OTHER-SCH-D_FL=BUILDING STORY 1_SCHD
   #Components on Supply Air Path,1
   Supply Air Path Component,1,AIRLOOPHVAC:ZONESPLITTER,AIR LOOP HVAC ZONE SPLITTER 1,SYS_4_PSZ_WET_ST=WASHROOM - OTHER-SCH-D_FL=BUILDING STORY 1_SCHD
     #Outlet Nodes on Supply Air Path Component,2
     Supply Air Path Component Nodes,1,AIRLOOPHVAC:ZONESPLITTER,AIR LOOP HVAC ZONE SPLITTER 1,NODE 5,NODE 406,SYS_4_PSZ_WET_ST=WASHROOM - OTHER-SCH-D_FL=BUILDING STORY 1_SCHD
     Supply Air Path Component Nodes,2,AIRLOOPHVAC:ZONESPLITTER,AIR LOOP HVAC ZONE SPLITTER 1,NODE 5,NODE 407,SYS_4_PSZ_WET_ST=WASHROOM - OTHER-SCH-D_FL=BUILDING STORY 1_SCHD
! <#Nodes on Supply Air Path>,<Number of Nodes>
! <Supply Air Path Node>,<Node Type>,<Node Count>,<Node Name>,<AirLoopHVAC Name>
#Nodes on Supply Air Path,3
   Supply Air Path Node,Inlet Node,1,NODE 5,SYS_4_PSZ_WET_ST=WASHROOM - OTHER-SCH-D_FL=BUILDING STORY 1_SCHD
   Supply Air Path Node,Outlet Node,2,NODE 406,SYS_4_PSZ_WET_ST=WASHROOM - OTHER-SCH-D_FL=BUILDING STORY 1_SCHD
   Supply Air Path Node,Outlet Node,3,NODE 407,SYS_4_PSZ_WET_ST=WASHROOM - OTHER-SCH-D_FL=BUILDING STORY 1_SCHD
 Supply Air Path,20,SYS_4_PSZ_WILD_ST=CORRIDOR/TRANSITION AREA OTHER-SCH-D_FL=BUILDING STORY 2_SCH=D NODE 24 SUPPLY PATH,SYS_4_PSZ_WILD_ST=CORRIDOR/TRANSITION AREA OTHER-SCH-D_FL=BUILDING STORY 2_SCH=D
   #Components on Supply Air Path,1
   Supply Air Path Component,1,AIRLOOPHVAC:ZONESPLITTER,AIR LOOP HVAC ZONE SPLITTER 2,SYS_4_PSZ_WILD_ST=CORRIDOR/TRANSITION AREA OTHER-SCH-D_FL=BUILDING STORY 2_SCH=D
     #Outlet Nodes on Supply Air Path Component,6
     Supply Air Path Component Nodes,1,AIRLOOPHVAC:ZONESPLITTER,AIR LOOP HVAC ZONE SPLITTER 2,NODE 24,NODE 413,SYS_4_PSZ_WILD_ST=CORRIDOR/TRANSITION AREA OTHER-SCH-D_FL=BUILDING STORY 2_SCH=D
     Supply Air Path Component Nodes,2,AIRLOOPHVAC:ZONESPLITTER,AIR LOOP HVAC ZONE SPLITTER 2,NODE 24,NODE 414,SYS_4_PSZ_WILD_ST=CORRIDOR/TRANSITION AREA OTHER-SCH-D_FL=BUILDING STORY 2_SCH=D
     Supply Air Path Component Nodes,3,AIRLOOPHVAC:ZONESPLITTER,AIR LOOP HVAC ZONE SPLITTER 2,NODE 24,NODE 415,SYS_4_PSZ_WILD_ST=CORRIDOR/TRANSITION AREA OTHER-SCH-D_FL=BUILDING STORY 2_SCH=D
     Supply Air Path Component Nodes,4,AIRLOOPHVAC:ZONESPLITTER,AIR LOOP HVAC ZONE SPLITTER 2,NODE 24,NODE 416,SYS_4_PSZ_WILD_ST=CORRIDOR/TRANSITION AREA OTHER-SCH-D_FL=BUILDING STORY 2_SCH=D
     Supply Air Path Component Nodes,5,AIRLOOPHVAC:ZONESPLITTER,AIR LOOP HVAC ZONE SPLITTER 2,NODE 24,NODE 417,SYS_4_PSZ_WILD_ST=CORRIDOR/TRANSITION AREA OTHER-SCH-D_FL=BUILDING STORY 2_SCH=D
     Supply Air Path Component Nodes,6,AIRLOOPHVAC:ZONESPLITTER,AIR LOOP HVAC ZONE SPLITTER 2,NODE 24,NODE 418,SYS_4_PSZ_WILD_ST=CORRIDOR/TRANSITION AREA OTHER-SCH-D_FL=BUILDING STORY 2_SCH=D
! <#Nodes on Supply Air Path>,<Number of Nodes>
! <Supply Air Path Node>,<Node Type>,<Node Count>,<Node Name>,<AirLoopHVAC Name>
#Nodes on Supply Air Path,7
   Supply Air Path Node,Inlet Node,1,NODE 24,SYS_4_PSZ_WILD_ST=CORRIDOR/TRANSITION AREA OTHER-SCH-D_FL=BUILDING STORY 2_SCH=D
   Supply Air Path Node,Outlet Node,2,NODE 413,SYS_4_PSZ_WILD_ST=CORRIDOR/TRANSITION AREA OTHER-SCH-D_FL=BUILDING STORY 2_SCH=D
   Supply Air Path Node,Outlet Node,3,NODE 414,SYS_4_PSZ_WILD_ST=CORRIDOR/TRANSITION AREA OTHER-SCH-D_FL=BUILDING STORY 2_SCH=D
   Supply Air Path Node,Outlet Node,4,NODE 415,SYS_4_PSZ_WILD_ST=CORRIDOR/TRANSITION AREA OTHER-SCH-D_FL=BUILDING STORY 2_SCH=D
   Supply Air Path Node,Outlet Node,5,NODE 416,SYS_4_PSZ_WILD_ST=CORRIDOR/TRANSITION AREA OTHER-SCH-D_FL=BUILDING STORY 2_SCH=D
   Supply Air Path Node,Outlet Node,6,NODE 417,SYS_4_PSZ_WILD_ST=CORRIDOR/TRANSITION AREA OTHER-SCH-D_FL=BUILDING STORY 2_SCH=D
   Supply Air Path Node,Outlet Node,7,NODE 418,SYS_4_PSZ_WILD_ST=CORRIDOR/TRANSITION AREA OTHER-SCH-D_FL=BUILDING STORY 2_SCH=D
! ===============================================================
! <#Return Air Paths>,<Number of Return Air Paths>
 #Return Air Paths,20
! <Return Air Path>,<Return Air Path Count>,<Return Air Path Name>,<AirLoopHVAC Name>
! <#Components on Return Air Path>,<Number of Components>
! <Return Air Path Component>,<Component Count>,<Component Type>,<Component Name>,<AirLoopHVAC Name>
! <#Inlet Nodes on Return Air Path Component>,<Number of Nodes>
! <Return Air Path Component Nodes>,<Node Count>,<Component Type>,<Component Name>,<Inlet Node Name>,<Outlet Node Name>,<AirLoopHVAC Name>
 Return Air Path,1,SYS_3_PSZ ALL_ST=AUDIENCE SEATING AREA PERMANENT - AUDITORIUM_FL=BUILDING STORY 1_SCH=C RETURN PATH,SYS_3_PSZ ALL_ST=AUDIENCE SEATING AREA PERMANENT - AUDITORIUM_FL=BUILDING STORY 1_SCH=C
   #Components on Return Air Path,1
   Return Air Path Component,1,AIRLOOPHVAC:ZONEMIXER,AIR LOOP HVAC ZONE MIXER 12,SYS_3_PSZ ALL_ST=AUDIENCE SEATING AREA PERMANENT - AUDITORIUM_FL=BUILDING STORY 1_SCH=C
     #Inlet Nodes on Return Air Path Component,1
     Return Air Path Component Nodes,1,AIRLOOPHVAC:ZONEMIXER,AIR LOOP HVAC ZONE MIXER 12,NODE 170,NODE 163,SYS_3_PSZ ALL_ST=AUDIENCE SEATING AREA PERMANENT - AUDITORIUM_FL=BUILDING STORY 1_SCH=C
! <#Nodes on Return Air Path>,<Number of Nodes>
! <Return Air Path Node>,<Node Type>,<Node Count>,<Node Name>,<AirLoopHVAC Name>
   #Nodes on Return Air Path,2
   Return Air Path Node,Outlet Node,1,NODE 163,SYS_3_PSZ ALL_ST=AUDIENCE SEATING AREA PERMANENT - AUDITORIUM_FL=BUILDING STORY 1_SCH=C
   Return Air Path Node,Inlet Node,2,NODE 170,SYS_3_PSZ ALL_ST=AUDIENCE SEATING AREA PERMANENT - AUDITORIUM_FL=BUILDING STORY 1_SCH=C
 Return Air Path,2,SYS_3_PSZ ALL_ST=CLASSROOM/LECTURE HALL/TRAINING ROOM OTHER_FL=BUILDING STORY 1_SCH=D RETURN PATH,SYS_3_PSZ ALL_ST=CLASSROOM/LECTURE HALL/TRAINING ROOM OTHER_FL=BUILDING STORY 1_SCH=D
   #Components on Return Air Path,1
   Return Air Path Component,1,AIRLOOPHVAC:ZONEMIXER,AIR LOOP HVAC ZONE MIXER 5,SYS_3_PSZ ALL_ST=CLASSROOM/LECTURE HALL/TRAINING ROOM OTHER_FL=BUILDING STORY 1_SCH=D
     #Inlet Nodes on Return Air Path Component,1
     Return Air Path Component Nodes,1,AIRLOOPHVAC:ZONEMIXER,AIR LOOP HVAC ZONE MIXER 5,NODE 93,NODE 86,SYS_3_PSZ ALL_ST=CLASSROOM/LECTURE HALL/TRAINING ROOM OTHER_FL=BUILDING STORY 1_SCH=D
! <#Nodes on Return Air Path>,<Number of Nodes>
! <Return Air Path Node>,<Node Type>,<Node Count>,<Node Name>,<AirLoopHVAC Name>
   #Nodes on Return Air Path,2
   Return Air Path Node,Outlet Node,1,NODE 86,SYS_3_PSZ ALL_ST=CLASSROOM/LECTURE HALL/TRAINING ROOM OTHER_FL=BUILDING STORY 1_SCH=D
   Return Air Path Node,Inlet Node,2,NODE 93,SYS_3_PSZ ALL_ST=CLASSROOM/LECTURE HALL/TRAINING ROOM OTHER_FL=BUILDING STORY 1_SCH=D
 Return Air Path,3,SYS_3_PSZ ALL_ST=CLASSROOM/LECTURE HALL/TRAINING ROOM OTHER_FL=BUILDING STORY 1_SCH=D 1 RETURN PATH,SYS_3_PSZ ALL_ST=CLASSROOM/LECTURE HALL/TRAINING ROOM OTHER_FL=BUILDING STORY 1_SCH=D 1
   #Components on Return Air Path,1
   Return Air Path Component,1,AIRLOOPHVAC:ZONEMIXER,AIR LOOP HVAC ZONE MIXER 9,SYS_3_PSZ ALL_ST=CLASSROOM/LECTURE HALL/TRAINING ROOM OTHER_FL=BUILDING STORY 1_SCH=D 1
     #Inlet Nodes on Return Air Path Component,1
     Return Air Path Component Nodes,1,AIRLOOPHVAC:ZONEMIXER,AIR LOOP HVAC ZONE MIXER 9,NODE 137,NODE 130,SYS_3_PSZ ALL_ST=CLASSROOM/LECTURE HALL/TRAINING ROOM OTHER_FL=BUILDING STORY 1_SCH=D 1
! <#Nodes on Return Air Path>,<Number of Nodes>
! <Return Air Path Node>,<Node Type>,<Node Count>,<Node Name>,<AirLoopHVAC Name>
   #Nodes on Return Air Path,2
   Return Air Path Node,Outlet Node,1,NODE 130,SYS_3_PSZ ALL_ST=CLASSROOM/LECTURE HALL/TRAINING ROOM OTHER_FL=BUILDING STORY 1_SCH=D 1
   Return Air Path Node,Inlet Node,2,NODE 137,SYS_3_PSZ ALL_ST=CLASSROOM/LECTURE HALL/TRAINING ROOM OTHER_FL=BUILDING STORY 1_SCH=D 1
 Return Air Path,4,SYS_3_PSZ ALL_ST=CLASSROOM/LECTURE HALL/TRAINING ROOM OTHER_FL=BUILDING STORY 1_SCH=D 2 RETURN PATH,SYS_3_PSZ ALL_ST=CLASSROOM/LECTURE HALL/TRAINING ROOM OTHER_FL=BUILDING STORY 1_SCH=D 2
   #Components on Return Air Path,1
   Return Air Path Component,1,AIRLOOPHVAC:ZONEMIXER,AIR LOOP HVAC ZONE MIXER 10,SYS_3_PSZ ALL_ST=CLASSROOM/LECTURE HALL/TRAINING ROOM OTHER_FL=BUILDING STORY 1_SCH=D 2
     #Inlet Nodes on Return Air Path Component,1
     Return Air Path Component Nodes,1,AIRLOOPHVAC:ZONEMIXER,AIR LOOP HVAC ZONE MIXER 10,NODE 148,NODE 141,SYS_3_PSZ ALL_ST=CLASSROOM/LECTURE HALL/TRAINING ROOM OTHER_FL=BUILDING STORY 1_SCH=D 2
! <#Nodes on Return Air Path>,<Number of Nodes>
! <Return Air Path Node>,<Node Type>,<Node Count>,<Node Name>,<AirLoopHVAC Name>
   #Nodes on Return Air Path,2
   Return Air Path Node,Outlet Node,1,NODE 141,SYS_3_PSZ ALL_ST=CLASSROOM/LECTURE HALL/TRAINING ROOM OTHER_FL=BUILDING STORY 1_SCH=D 2
   Return Air Path Node,Inlet Node,2,NODE 148,SYS_3_PSZ ALL_ST=CLASSROOM/LECTURE HALL/TRAINING ROOM OTHER_FL=BUILDING STORY 1_SCH=D 2
 Return Air Path,5,SYS_3_PSZ ALL_ST=CLASSROOM/LECTURE HALL/TRAINING ROOM OTHER_FL=BUILDING STORY 1_SCH=D 3 RETURN PATH,SYS_3_PSZ ALL_ST=CLASSROOM/LECTURE HALL/TRAINING ROOM OTHER_FL=BUILDING STORY 1_SCH=D 3
   #Components on Return Air Path,1
   Return Air Path Component,1,AIRLOOPHVAC:ZONEMIXER,AIR LOOP HVAC ZONE MIXER 16,SYS_3_PSZ ALL_ST=CLASSROOM/LECTURE HALL/TRAINING ROOM OTHER_FL=BUILDING STORY 1_SCH=D 3
     #Inlet Nodes on Return Air Path Component,1
     Return Air Path Component Nodes,1,AIRLOOPHVAC:ZONEMIXER,AIR LOOP HVAC ZONE MIXER 16,NODE 214,NODE 207,SYS_3_PSZ ALL_ST=CLASSROOM/LECTURE HALL/TRAINING ROOM OTHER_FL=BUILDING STORY 1_SCH=D 3
! <#Nodes on Return Air Path>,<Number of Nodes>
! <Return Air Path Node>,<Node Type>,<Node Count>,<Node Name>,<AirLoopHVAC Name>
   #Nodes on Return Air Path,2
   Return Air Path Node,Outlet Node,1,NODE 207,SYS_3_PSZ ALL_ST=CLASSROOM/LECTURE HALL/TRAINING ROOM OTHER_FL=BUILDING STORY 1_SCH=D 3
   Return Air Path Node,Inlet Node,2,NODE 214,SYS_3_PSZ ALL_ST=CLASSROOM/LECTURE HALL/TRAINING ROOM OTHER_FL=BUILDING STORY 1_SCH=D 3
 Return Air Path,6,SYS_3_PSZ ALL_ST=CLASSROOM/LECTURE HALL/TRAINING ROOM OTHER_FL=BUILDING STORY 2_SCH=D RETURN PATH,SYS_3_PSZ ALL_ST=CLASSROOM/LECTURE HALL/TRAINING ROOM OTHER_FL=BUILDING STORY 2_SCH=D
   #Components on Return Air Path,1
   Return Air Path Component,1,AIRLOOPHVAC:ZONEMIXER,AIR LOOP HVAC ZONE MIXER 6,SYS_3_PSZ ALL_ST=CLASSROOM/LECTURE HALL/TRAINING ROOM OTHER_FL=BUILDING STORY 2_SCH=D
     #Inlet Nodes on Return Air Path Component,1
     Return Air Path Component Nodes,1,AIRLOOPHVAC:ZONEMIXER,AIR LOOP HVAC ZONE MIXER 6,NODE 104,NODE 97,SYS_3_PSZ ALL_ST=CLASSROOM/LECTURE HALL/TRAINING ROOM OTHER_FL=BUILDING STORY 2_SCH=D
! <#Nodes on Return Air Path>,<Number of Nodes>
! <Return Air Path Node>,<Node Type>,<Node Count>,<Node Name>,<AirLoopHVAC Name>
   #Nodes on Return Air Path,2
   Return Air Path Node,Outlet Node,1,NODE 97,SYS_3_PSZ ALL_ST=CLASSROOM/LECTURE HALL/TRAINING ROOM OTHER_FL=BUILDING STORY 2_SCH=D
   Return Air Path Node,Inlet Node,2,NODE 104,SYS_3_PSZ ALL_ST=CLASSROOM/LECTURE HALL/TRAINING ROOM OTHER_FL=BUILDING STORY 2_SCH=D
 Return Air Path,7,SYS_3_PSZ ALL_ST=CLASSROOM/LECTURE HALL/TRAINING ROOM OTHER_FL=BUILDING STORY 2_SCH=D 1 RETURN PATH,SYS_3_PSZ ALL_ST=CLASSROOM/LECTURE HALL/TRAINING ROOM OTHER_FL=BUILDING STORY 2_SCH=D 1
   #Components on Return Air Path,1
   Return Air Path Component,1,AIRLOOPHVAC:ZONEMIXER,AIR LOOP HVAC ZONE MIXER 7,SYS_3_PSZ ALL_ST=CLASSROOM/LECTURE HALL/TRAINING ROOM OTHER_FL=BUILDING STORY 2_SCH=D 1
     #Inlet Nodes on Return Air Path Component,1
     Return Air Path Component Nodes,1,AIRLOOPHVAC:ZONEMIXER,AIR LOOP HVAC ZONE MIXER 7,NODE 115,NODE 108,SYS_3_PSZ ALL_ST=CLASSROOM/LECTURE HALL/TRAINING ROOM OTHER_FL=BUILDING STORY 2_SCH=D 1
! <#Nodes on Return Air Path>,<Number of Nodes>
! <Return Air Path Node>,<Node Type>,<Node Count>,<Node Name>,<AirLoopHVAC Name>
   #Nodes on Return Air Path,2
   Return Air Path Node,Outlet Node,1,NODE 108,SYS_3_PSZ ALL_ST=CLASSROOM/LECTURE HALL/TRAINING ROOM OTHER_FL=BUILDING STORY 2_SCH=D 1
   Return Air Path Node,Inlet Node,2,NODE 115,SYS_3_PSZ ALL_ST=CLASSROOM/LECTURE HALL/TRAINING ROOM OTHER_FL=BUILDING STORY 2_SCH=D 1
 Return Air Path,8,SYS_3_PSZ ALL_ST=CLASSROOM/LECTURE HALL/TRAINING ROOM OTHER_FL=BUILDING STORY 2_SCH=D 2 RETURN PATH,SYS_3_PSZ ALL_ST=CLASSROOM/LECTURE HALL/TRAINING ROOM OTHER_FL=BUILDING STORY 2_SCH=D 2
   #Components on Return Air Path,1
   Return Air Path Component,1,AIRLOOPHVAC:ZONEMIXER,AIR LOOP HVAC ZONE MIXER 8,SYS_3_PSZ ALL_ST=CLASSROOM/LECTURE HALL/TRAINING ROOM OTHER_FL=BUILDING STORY 2_SCH=D 2
     #Inlet Nodes on Return Air Path Component,1
     Return Air Path Component Nodes,1,AIRLOOPHVAC:ZONEMIXER,AIR LOOP HVAC ZONE MIXER 8,NODE 126,NODE 119,SYS_3_PSZ ALL_ST=CLASSROOM/LECTURE HALL/TRAINING ROOM OTHER_FL=BUILDING STORY 2_SCH=D 2
! <#Nodes on Return Air Path>,<Number of Nodes>
! <Return Air Path Node>,<Node Type>,<Node Count>,<Node Name>,<AirLoopHVAC Name>
   #Nodes on Return Air Path,2
   Return Air Path Node,Outlet Node,1,NODE 119,SYS_3_PSZ ALL_ST=CLASSROOM/LECTURE HALL/TRAINING ROOM OTHER_FL=BUILDING STORY 2_SCH=D 2
   Return Air Path Node,Inlet Node,2,NODE 126,SYS_3_PSZ ALL_ST=CLASSROOM/LECTURE HALL/TRAINING ROOM OTHER_FL=BUILDING STORY 2_SCH=D 2
 Return Air Path,9,SYS_3_PSZ ALL_ST=CLASSROOM/LECTURE HALL/TRAINING ROOM OTHER_FL=BUILDING STORY 2_SCH=D 3 RETURN PATH,SYS_3_PSZ ALL_ST=CLASSROOM/LECTURE HALL/TRAINING ROOM OTHER_FL=BUILDING STORY 2_SCH=D 3
   #Components on Return Air Path,1
   Return Air Path Component,1,AIRLOOPHVAC:ZONEMIXER,AIR LOOP HVAC ZONE MIXER 11,SYS_3_PSZ ALL_ST=CLASSROOM/LECTURE HALL/TRAINING ROOM OTHER_FL=BUILDING STORY 2_SCH=D 3
     #Inlet Nodes on Return Air Path Component,1
     Return Air Path Component Nodes,1,AIRLOOPHVAC:ZONEMIXER,AIR LOOP HVAC ZONE MIXER 11,NODE 159,NODE 152,SYS_3_PSZ ALL_ST=CLASSROOM/LECTURE HALL/TRAINING ROOM OTHER_FL=BUILDING STORY 2_SCH=D 3
! <#Nodes on Return Air Path>,<Number of Nodes>
! <Return Air Path Node>,<Node Type>,<Node Count>,<Node Name>,<AirLoopHVAC Name>
   #Nodes on Return Air Path,2
   Return Air Path Node,Outlet Node,1,NODE 152,SYS_3_PSZ ALL_ST=CLASSROOM/LECTURE HALL/TRAINING ROOM OTHER_FL=BUILDING STORY 2_SCH=D 3
   Return Air Path Node,Inlet Node,2,NODE 159,SYS_3_PSZ ALL_ST=CLASSROOM/LECTURE HALL/TRAINING ROOM OTHER_FL=BUILDING STORY 2_SCH=D 3
 Return Air Path,10,SYS_3_PSZ ALL_ST=CONFERENCE/MEETING/MULTI-PURPOSE ROOM_FL=BUILDING STORY 1_SCH=C RETURN PATH,SYS_3_PSZ ALL_ST=CONFERENCE/MEETING/MULTI-PURPOSE ROOM_FL=BUILDING STORY 1_SCH=C
   #Components on Return Air Path,1
   Return Air Path Component,1,AIRLOOPHVAC:ZONEMIXER,AIR LOOP HVAC ZONE MIXER 20,SYS_3_PSZ ALL_ST=CONFERENCE/MEETING/MULTI-PURPOSE ROOM_FL=BUILDING STORY 1_SCH=C
     #Inlet Nodes on Return Air Path Component,1
     Return Air Path Component Nodes,1,AIRLOOPHVAC:ZONEMIXER,AIR LOOP HVAC ZONE MIXER 20,NODE 258,NODE 251,SYS_3_PSZ ALL_ST=CONFERENCE/MEETING/MULTI-PURPOSE ROOM_FL=BUILDING STORY 1_SCH=C
! <#Nodes on Return Air Path>,<Number of Nodes>
! <Return Air Path Node>,<Node Type>,<Node Count>,<Node Name>,<AirLoopHVAC Name>
   #Nodes on Return Air Path,2
   Return Air Path Node,Outlet Node,1,NODE 251,SYS_3_PSZ ALL_ST=CONFERENCE/MEETING/MULTI-PURPOSE ROOM_FL=BUILDING STORY 1_SCH=C
   Return Air Path Node,Inlet Node,2,NODE 258,SYS_3_PSZ ALL_ST=CONFERENCE/MEETING/MULTI-PURPOSE ROOM_FL=BUILDING STORY 1_SCH=C
 Return Air Path,11,SYS_3_PSZ ALL_ST=FOOD PREPARATION AREA_FL=BUILDING STORY 1_SCH=B RETURN PATH,SYS_3_PSZ ALL_ST=FOOD PREPARATION AREA_FL=BUILDING STORY 1_SCH=B
   #Components on Return Air Path,1
   Return Air Path Component,1,AIRLOOPHVAC:ZONEMIXER,AIR LOOP HVAC ZONE MIXER 18,SYS_3_PSZ ALL_ST=FOOD PREPARATION AREA_FL=BUILDING STORY 1_SCH=B
     #Inlet Nodes on Return Air Path Component,1
     Return Air Path Component Nodes,1,AIRLOOPHVAC:ZONEMIXER,AIR LOOP HVAC ZONE MIXER 18,NODE 236,NODE 229,SYS_3_PSZ ALL_ST=FOOD PREPARATION AREA_FL=BUILDING STORY 1_SCH=B
! <#Nodes on Return Air Path>,<Number of Nodes>
! <Return Air Path Node>,<Node Type>,<Node Count>,<Node Name>,<AirLoopHVAC Name>
   #Nodes on Return Air Path,2
   Return Air Path Node,Outlet Node,1,NODE 229,SYS_3_PSZ ALL_ST=FOOD PREPARATION AREA_FL=BUILDING STORY 1_SCH=B
   Return Air Path Node,Inlet Node,2,NODE 236,SYS_3_PSZ ALL_ST=FOOD PREPARATION AREA_FL=BUILDING STORY 1_SCH=B
 Return Air Path,12,SYS_3_PSZ ALL_ST=GYMNASIUM/FITNESS CENTRE PLAYING AREA_FL=BUILDING STORY 1_SCH=B RETURN PATH,SYS_3_PSZ ALL_ST=GYMNASIUM/FITNESS CENTRE PLAYING AREA_FL=BUILDING STORY 1_SCH=B
   #Components on Return Air Path,1
   Return Air Path Component,1,AIRLOOPHVAC:ZONEMIXER,AIR LOOP HVAC ZONE MIXER 15,SYS_3_PSZ ALL_ST=GYMNASIUM/FITNESS CENTRE PLAYING AREA_FL=BUILDING STORY 1_SCH=B
     #Inlet Nodes on Return Air Path Component,1
     Return Air Path Component Nodes,1,AIRLOOPHVAC:ZONEMIXER,AIR LOOP HVAC ZONE MIXER 15,NODE 203,NODE 196,SYS_3_PSZ ALL_ST=GYMNASIUM/FITNESS CENTRE PLAYING AREA_FL=BUILDING STORY 1_SCH=B
! <#Nodes on Return Air Path>,<Number of Nodes>
! <Return Air Path Node>,<Node Type>,<Node Count>,<Node Name>,<AirLoopHVAC Name>
   #Nodes on Return Air Path,2
   Return Air Path Node,Outlet Node,1,NODE 196,SYS_3_PSZ ALL_ST=GYMNASIUM/FITNESS CENTRE PLAYING AREA_FL=BUILDING STORY 1_SCH=B
   Return Air Path Node,Inlet Node,2,NODE 203,SYS_3_PSZ ALL_ST=GYMNASIUM/FITNESS CENTRE PLAYING AREA_FL=BUILDING STORY 1_SCH=B
 Return Air Path,13,SYS_3_PSZ ALL_ST=GYMNASIUM/FITNESS CENTRE PLAYING AREA_FL=BUILDING STORY 1_SCH=B 1 RETURN PATH,SYS_3_PSZ ALL_ST=GYMNASIUM/FITNESS CENTRE PLAYING AREA_FL=BUILDING STORY 1_SCH=B 1
   #Components on Return Air Path,1
   Return Air Path Component,1,AIRLOOPHVAC:ZONEMIXER,AIR LOOP HVAC ZONE MIXER 17,SYS_3_PSZ ALL_ST=GYMNASIUM/FITNESS CENTRE PLAYING AREA_FL=BUILDING STORY 1_SCH=B 1
     #Inlet Nodes on Return Air Path Component,1
     Return Air Path Component Nodes,1,AIRLOOPHVAC:ZONEMIXER,AIR LOOP HVAC ZONE MIXER 17,NODE 225,NODE 218,SYS_3_PSZ ALL_ST=GYMNASIUM/FITNESS CENTRE PLAYING AREA_FL=BUILDING STORY 1_SCH=B 1
! <#Nodes on Return Air Path>,<Number of Nodes>
! <Return Air Path Node>,<Node Type>,<Node Count>,<Node Name>,<AirLoopHVAC Name>
   #Nodes on Return Air Path,2
   Return Air Path Node,Outlet Node,1,NODE 218,SYS_3_PSZ ALL_ST=GYMNASIUM/FITNESS CENTRE PLAYING AREA_FL=BUILDING STORY 1_SCH=B 1
   Return Air Path Node,Inlet Node,2,NODE 225,SYS_3_PSZ ALL_ST=GYMNASIUM/FITNESS CENTRE PLAYING AREA_FL=BUILDING STORY 1_SCH=B 1
 Return Air Path,14,SYS_3_PSZ ALL_ST=LIBRARY READING AREA_FL=BUILDING STORY 2_SCH=C RETURN PATH,SYS_3_PSZ ALL_ST=LIBRARY READING AREA_FL=BUILDING STORY 2_SCH=C
   #Components on Return Air Path,1
   Return Air Path Component,1,AIRLOOPHVAC:ZONEMIXER,AIR LOOP HVAC ZONE MIXER 13,SYS_3_PSZ ALL_ST=LIBRARY READING AREA_FL=BUILDING STORY 2_SCH=C
     #Inlet Nodes on Return Air Path Component,1
     Return Air Path Component Nodes,1,AIRLOOPHVAC:ZONEMIXER,AIR LOOP HVAC ZONE MIXER 13,NODE 181,NODE 174,SYS_3_PSZ ALL_ST=LIBRARY READING AREA_FL=BUILDING STORY 2_SCH=C
! <#Nodes on Return Air Path>,<Number of Nodes>
! <Return Air Path Node>,<Node Type>,<Node Count>,<Node Name>,<AirLoopHVAC Name>
   #Nodes on Return Air Path,2
   Return Air Path Node,Outlet Node,1,NODE 174,SYS_3_PSZ ALL_ST=LIBRARY READING AREA_FL=BUILDING STORY 2_SCH=C
   Return Air Path Node,Inlet Node,2,NODE 181,SYS_3_PSZ ALL_ST=LIBRARY READING AREA_FL=BUILDING STORY 2_SCH=C
 Return Air Path,15,SYS_3_PSZ ALL_ST=LOBBY - OTHER_FL=BUILDING STORY 1_SCH=C RETURN PATH,SYS_3_PSZ ALL_ST=LOBBY - OTHER_FL=BUILDING STORY 1_SCH=C
   #Components on Return Air Path,1
   Return Air Path Component,1,AIRLOOPHVAC:ZONEMIXER,AIR LOOP HVAC ZONE MIXER 3,SYS_3_PSZ ALL_ST=LOBBY - OTHER_FL=BUILDING STORY 1_SCH=C
     #Inlet Nodes on Return Air Path Component,1
     Return Air Path Component Nodes,1,AIRLOOPHVAC:ZONEMIXER,AIR LOOP HVAC ZONE MIXER 3,NODE 68,NODE 57,SYS_3_PSZ ALL_ST=LOBBY - OTHER_FL=BUILDING STORY 1_SCH=C
! <#Nodes on Return Air Path>,<Number of Nodes>
! <Return Air Path Node>,<Node Type>,<Node Count>,<Node Name>,<AirLoopHVAC Name>
   #Nodes on Return Air Path,2
   Return Air Path Node,Outlet Node,1,NODE 57,SYS_3_PSZ ALL_ST=LOBBY - OTHER_FL=BUILDING STORY 1_SCH=C
   Return Air Path Node,Inlet Node,2,NODE 68,SYS_3_PSZ ALL_ST=LOBBY - OTHER_FL=BUILDING STORY 1_SCH=C
 Return Air Path,16,SYS_3_PSZ ALL_ST=LOBBY - OTHER_FL=BUILDING STORY 2_SCH=C RETURN PATH,SYS_3_PSZ ALL_ST=LOBBY - OTHER_FL=BUILDING STORY 2_SCH=C
   #Components on Return Air Path,1
   Return Air Path Component,1,AIRLOOPHVAC:ZONEMIXER,AIR LOOP HVAC ZONE MIXER 4,SYS_3_PSZ ALL_ST=LOBBY - OTHER_FL=BUILDING STORY 2_SCH=C
     #Inlet Nodes on Return Air Path Component,1
     Return Air Path Component Nodes,1,AIRLOOPHVAC:ZONEMIXER,AIR LOOP HVAC ZONE MIXER 4,NODE 82,NODE 74,SYS_3_PSZ ALL_ST=LOBBY - OTHER_FL=BUILDING STORY 2_SCH=C
! <#Nodes on Return Air Path>,<Number of Nodes>
! <Return Air Path Node>,<Node Type>,<Node Count>,<Node Name>,<AirLoopHVAC Name>
   #Nodes on Return Air Path,2
   Return Air Path Node,Outlet Node,1,NODE 74,SYS_3_PSZ ALL_ST=LOBBY - OTHER_FL=BUILDING STORY 2_SCH=C
   Return Air Path Node,Inlet Node,2,NODE 82,SYS_3_PSZ ALL_ST=LOBBY - OTHER_FL=BUILDING STORY 2_SCH=C
[...]
 Non-Parent Node Connection,NODE 94,OUTDOORAIR:MIXER,AIR LOOP HVAC OUTDOOR AIR SYSTEM 6 OUTDOOR AIR MIXER,Inlet,1
 Non-Parent Node Connection,NODE 114,OUTDOORAIR:MIXER,AIR LOOP HVAC OUTDOOR AIR SYSTEM 7 OUTDOOR AIR MIXER,Outlet,1
 Non-Parent Node Connection,NODE 350,OUTDOORAIR:MIXER,AIR LOOP HVAC OUTDOOR AIR SYSTEM 7 OUTDOOR AIR MIXER,Inlet,1
 Non-Parent Node Connection,NODE 351,OUTDOORAIR:MIXER,AIR LOOP HVAC OUTDOOR AIR SYSTEM 7 OUTDOOR AIR MIXER,ReliefAir,1
 Non-Parent Node Connection,NODE 105,OUTDOORAIR:MIXER,AIR LOOP HVAC OUTDOOR AIR SYSTEM 7 OUTDOOR AIR MIXER,Inlet,1
 Non-Parent Node Connection,NODE 125,OUTDOORAIR:MIXER,AIR LOOP HVAC OUTDOOR AIR SYSTEM 8 OUTDOOR AIR MIXER,Outlet,1
 Non-Parent Node Connection,NODE 352,OUTDOORAIR:MIXER,AIR LOOP HVAC OUTDOOR AIR SYSTEM 8 OUTDOOR AIR MIXER,Inlet,1
 Non-Parent Node Connection,NODE 353,OUTDOORAIR:MIXER,AIR LOOP HVAC OUTDOOR AIR SYSTEM 8 OUTDOOR AIR MIXER,ReliefAir,1
 Non-Parent Node Connection,NODE 116,OUTDOORAIR:MIXER,AIR LOOP HVAC OUTDOOR AIR SYSTEM 8 OUTDOOR AIR MIXER,Inlet,1
 Non-Parent Node Connection,NODE 158,OUTDOORAIR:MIXER,AIR LOOP HVAC OUTDOOR AIR SYSTEM 11 OUTDOOR AIR MIXER,Outlet,1
 Non-Parent Node Connection,NODE 354,OUTDOORAIR:MIXER,AIR LOOP HVAC OUTDOOR AIR SYSTEM 11 OUTDOOR AIR MIXER,Inlet,1
 Non-Parent Node Connection,NODE 355,OUTDOORAIR:MIXER,AIR LOOP HVAC OUTDOOR AIR SYSTEM 11 OUTDOOR AIR MIXER,ReliefAir,1
 Non-Parent Node Connection,NODE 149,OUTDOORAIR:MIXER,AIR LOOP HVAC OUTDOOR AIR SYSTEM 11 OUTDOOR AIR MIXER,Inlet,1
 Non-Parent Node Connection,NODE 257,OUTDOORAIR:MIXER,AIR LOOP HVAC OUTDOOR AIR SYSTEM 20 OUTDOOR AIR MIXER,Outlet,1
 Non-Parent Node Connection,NODE 356,OUTDOORAIR:MIXER,AIR LOOP HVAC OUTDOOR AIR SYSTEM 20 OUTDOOR AIR MIXER,Inlet,1
 Non-Parent Node Connection,NODE 357,OUTDOORAIR:MIXER,AIR LOOP HVAC OUTDOOR AIR SYSTEM 20 OUTDOOR AIR MIXER,ReliefAir,1
 Non-Parent Node Connection,NODE 248,OUTDOORAIR:MIXER,AIR LOOP HVAC OUTDOOR AIR SYSTEM 20 OUTDOOR AIR MIXER,Inlet,1
 Non-Parent Node Connection,NODE 235,OUTDOORAIR:MIXER,AIR LOOP HVAC OUTDOOR AIR SYSTEM 18 OUTDOOR AIR MIXER,Outlet,1
 Non-Parent Node Connection,NODE 358,OUTDOORAIR:MIXER,AIR LOOP HVAC OUTDOOR AIR SYSTEM 18 OUTDOOR AIR MIXER,Inlet,1
 Non-Parent Node Connection,NODE 359,OUTDOORAIR:MIXER,AIR LOOP HVAC OUTDOOR AIR SYSTEM 18 OUTDOOR AIR MIXER,ReliefAir,1
 Non-Parent Node Connection,NODE 226,OUTDOORAIR:MIXER,AIR LOOP HVAC OUTDOOR AIR SYSTEM 18 OUTDOOR AIR MIXER,Inlet,1
 Non-Parent Node Connection,NODE 202,OUTDOORAIR:MIXER,AIR LOOP HVAC OUTDOOR AIR SYSTEM 15 OUTDOOR AIR MIXER,Outlet,1
 Non-Parent Node Connection,NODE 360,OUTDOORAIR:MIXER,AIR LOOP HVAC OUTDOOR AIR SYSTEM 15 OUTDOOR AIR MIXER,Inlet,1
 Non-Parent Node Connection,NODE 361,OUTDOORAIR:MIXER,AIR LOOP HVAC OUTDOOR AIR SYSTEM 15 OUTDOOR AIR MIXER,ReliefAir,1
 Non-Parent Node Connection,NODE 193,OUTDOORAIR:MIXER,AIR LOOP HVAC OUTDOOR AIR SYSTEM 15 OUTDOOR AIR MIXER,Inlet,1
 Non-Parent Node Connection,NODE 224,OUTDOORAIR:MIXER,AIR LOOP HVAC OUTDOOR AIR SYSTEM 17 OUTDOOR AIR MIXER,Outlet,1
 Non-Parent Node Connection,NODE 362,OUTDOORAIR:MIXER,AIR LOOP HVAC OUTDOOR AIR SYSTEM 17 OUTDOOR AIR MIXER,Inlet,1
 Non-Parent Node Connection,NODE 363,OUTDOORAIR:MIXER,AIR LOOP HVAC OUTDOOR AIR SYSTEM 17 OUTDOOR AIR MIXER,ReliefAir,1
 Non-Parent Node Connection,NODE 215,OUTDOORAIR:MIXER,AIR LOOP HVAC OUTDOOR AIR SYSTEM 17 OUTDOOR AIR MIXER,Inlet,1
 Non-Parent Node Connection,NODE 180,OUTDOORAIR:MIXER,AIR LOOP HVAC OUTDOOR AIR SYSTEM 13 OUTDOOR AIR MIXER,Outlet,1
 Non-Parent Node Connection,NODE 364,OUTDOORAIR:MIXER,AIR LOOP HVAC OUTDOOR AIR SYSTEM 13 OUTDOOR AIR MIXER,Inlet,1
 Non-Parent Node Connection,NODE 365,OUTDOORAIR:MIXER,AIR LOOP HVAC OUTDOOR AIR SYSTEM 13 OUTDOOR AIR MIXER,ReliefAir,1
 Non-Parent Node Connection,NODE 171,OUTDOORAIR:MIXER,AIR LOOP HVAC OUTDOOR AIR SYSTEM 13 OUTDOOR AIR MIXER,Inlet,1
 Non-Parent Node Connection,NODE 66,OUTDOORAIR:MIXER,AIR LOOP HVAC OUTDOOR AIR SYSTEM 3 OUTDOOR AIR MIXER,Outlet,1
 Non-Parent Node Connection,NODE 366,OUTDOORAIR:MIXER,AIR LOOP HVAC OUTDOOR AIR SYSTEM 3 OUTDOOR AIR MIXER,Inlet,1
 Non-Parent Node Connection,NODE 367,OUTDOORAIR:MIXER,AIR LOOP HVAC OUTDOOR AIR SYSTEM 3 OUTDOOR AIR MIXER,ReliefAir,1
 Non-Parent Node Connection,NODE 53,OUTDOORAIR:MIXER,AIR LOOP HVAC OUTDOOR AIR SYSTEM 3 OUTDOOR AIR MIXER,Inlet,1
 Non-Parent Node Connection,NODE 81,OUTDOORAIR:MIXER,AIR LOOP HVAC OUTDOOR AIR SYSTEM 4 OUTDOOR AIR MIXER,Outlet,1
 Non-Parent Node Connection,NODE 368,OUTDOORAIR:MIXER,AIR LOOP HVAC OUTDOOR AIR SYSTEM 4 OUTDOOR AIR MIXER,Inlet,1
 Non-Parent Node Connection,NODE 369,OUTDOORAIR:MIXER,AIR LOOP HVAC OUTDOOR AIR SYSTEM 4 OUTDOOR AIR MIXER,ReliefAir,1
 Non-Parent Node Connection,NODE 69,OUTDOORAIR:MIXER,AIR LOOP HVAC OUTDOOR AIR SYSTEM 4 OUTDOOR AIR MIXER,Inlet,1
 Non-Parent Node Connection,NODE 191,OUTDOORAIR:MIXER,AIR LOOP HVAC OUTDOOR AIR SYSTEM 14 OUTDOOR AIR MIXER,Outlet,1
 Non-Parent Node Connection,NODE 370,OUTDOORAIR:MIXER,AIR LOOP HVAC OUTDOOR AIR SYSTEM 14 OUTDOOR AIR MIXER,Inlet,1
 Non-Parent Node Connection,NODE 371,OUTDOORAIR:MIXER,AIR LOOP HVAC OUTDOOR AIR SYSTEM 14 OUTDOOR AIR MIXER,ReliefAir,1
 Non-Parent Node Connection,NODE 182,OUTDOORAIR:MIXER,AIR LOOP HVAC OUTDOOR AIR SYSTEM 14 OUTDOOR AIR MIXER,Inlet,1
 Non-Parent Node Connection,NODE 246,OUTDOORAIR:MIXER,AIR LOOP HVAC OUTDOOR AIR SYSTEM 19 OUTDOOR AIR MIXER,Outlet,1
 Non-Parent Node Connection,NODE 372,OUTDOORAIR:MIXER,AIR LOOP HVAC OUTDOOR AIR SYSTEM 19 OUTDOOR AIR MIXER,Inlet,1
 Non-Parent Node Connection,NODE 373,OUTDOORAIR:MIXER,AIR LOOP HVAC OUTDOOR AIR SYSTEM 19 OUTDOOR AIR MIXER,ReliefAir,1
 Non-Parent Node Connection,NODE 237,OUTDOORAIR:MIXER,AIR LOOP HVAC OUTDOOR AIR SYSTEM 19 OUTDOOR AIR MIXER,Inlet,1
 Non-Parent Node Connection,NODE 15,OUTDOORAIR:MIXER,AIR LOOP HVAC OUTDOOR AIR SYSTEM 1 OUTDOOR AIR MIXER,Outlet,1
 Non-Parent Node Connection,NODE 374,OUTDOORAIR:MIXER,AIR LOOP HVAC OUTDOOR AIR SYSTEM 1 OUTDOOR AIR MIXER,Inlet,1
 Non-Parent Node Connection,NODE 375,OUTDOORAIR:MIXER,AIR LOOP HVAC OUTDOOR AIR SYSTEM 1 OUTDOOR AIR MIXER,ReliefAir,1
 Non-Parent Node Connection,NODE 2,OUTDOORAIR:MIXER,AIR LOOP HVAC OUTDOOR AIR SYSTEM 1 OUTDOOR AIR MIXER,Inlet,1
 Non-Parent Node Connection,NODE 35,OUTDOORAIR:MIXER,AIR LOOP HVAC OUTDOOR AIR SYSTEM 2 OUTDOOR AIR MIXER,Outlet,1
 Non-Parent Node Connection,NODE 376,OUTDOORAIR:MIXER,AIR LOOP HVAC OUTDOOR AIR SYSTEM 2 OUTDOOR AIR MIXER,Inlet,1
 Non-Parent Node Connection,NODE 377,OUTDOORAIR:MIXER,AIR LOOP HVAC OUTDOOR AIR SYSTEM 2 OUTDOOR AIR MIXER,ReliefAir,1
 Non-Parent Node Connection,NODE 21,OUTDOORAIR:MIXER,AIR LOOP HVAC OUTDOOR AIR SYSTEM 2 OUTDOOR AIR MIXER,Inlet,1
 Non-Parent Node Connection,NODE 169,CONTROLLER:OUTDOORAIR,CONTROLLER OUTDOOR AIR 12,Sensor,1
 Non-Parent Node Connection,NODE 165,CONTROLLER:OUTDOORAIR,CONTROLLER OUTDOOR AIR 12,Actuator,1
 Non-Parent Node Connection,NODE 339,CONTROLLER:OUTDOORAIR,CONTROLLER OUTDOOR AIR 12,Actuator,1
 Non-Parent Node Connection,NODE 160,CONTROLLER:OUTDOORAIR,CONTROLLER OUTDOOR AIR 12,Sensor,1
 Non-Parent Node Connection,NODE 92,CONTROLLER:OUTDOORAIR,CONTROLLER OUTDOOR AIR 5,Sensor,1
 Non-Parent Node Connection,NODE 88,CONTROLLER:OUTDOORAIR,CONTROLLER OUTDOOR AIR 5,Actuator,1
 Non-Parent Node Connection,NODE 341,CONTROLLER:OUTDOORAIR,CONTROLLER OUTDOOR AIR 5,Actuator,1
 Non-Parent Node Connection,NODE 83,CONTROLLER:OUTDOORAIR,CONTROLLER OUTDOOR AIR 5,Sensor,1
 Non-Parent Node Connection,NODE 136,CONTROLLER:OUTDOORAIR,CONTROLLER OUTDOOR AIR 9,Sensor,1
 Non-Parent Node Connection,NODE 132,CONTROLLER:OUTDOORAIR,CONTROLLER OUTDOOR AIR 9,Actuator,1
 Non-Parent Node Connection,NODE 343,CONTROLLER:OUTDOORAIR,CONTROLLER OUTDOOR AIR 9,Actuator,1
 Non-Parent Node Connection,NODE 127,CONTROLLER:OUTDOORAIR,CONTROLLER OUTDOOR AIR 9,Sensor,1
 Non-Parent Node Connection,NODE 147,CONTROLLER:OUTDOORAIR,CONTROLLER OUTDOOR AIR 10,Sensor,1
 Non-Parent Node Connection,NODE 143,CONTROLLER:OUTDOORAIR,CONTROLLER OUTDOOR AIR 10,Actuator,1
 Non-Parent Node Connection,NODE 345,CONTROLLER:OUTDOORAIR,CONTROLLER OUTDOOR AIR 10,Actuator,1
 Non-Parent Node Connection,NODE 138,CONTROLLER:OUTDOORAIR,CONTROLLER OUTDOOR AIR 10,Sensor,1
 Non-Parent Node Connection,NODE 213,CONTROLLER:OUTDOORAIR,CONTROLLER OUTDOOR AIR 16,Sensor,1
 Non-Parent Node Connection,NODE 209,CONTROLLER:OUTDOORAIR,CONTROLLER OUTDOOR AIR 16,Actuator,1
 Non-Parent Node Connection,NODE 347,CONTROLLER:OUTDOORAIR,CONTROLLER OUTDOOR AIR 16,Actuator,1
 Non-Parent Node Connection,NODE 204,CONTROLLER:OUTDOORAIR,CONTROLLER OUTDOOR AIR 16,Sensor,1
 Non-Parent Node Connection,NODE 103,CONTROLLER:OUTDOORAIR,CONTROLLER OUTDOOR AIR 6,Sensor,1
 Non-Parent Node Connection,NODE 99,CONTROLLER:OUTDOORAIR,CONTROLLER OUTDOOR AIR 6,Actuator,1
 Non-Parent Node Connection,NODE 349,CONTROLLER:OUTDOORAIR,CONTROLLER OUTDOOR AIR 6,Actuator,1
 Non-Parent Node Connection,NODE 94,CONTROLLER:OUTDOORAIR,CONTROLLER OUTDOOR AIR 6,Sensor,1
 Non-Parent Node Connection,NODE 114,CONTROLLER:OUTDOORAIR,CONTROLLER OUTDOOR AIR 7,Sensor,1
 Non-Parent Node Connection,NODE 110,CONTROLLER:OUTDOORAIR,CONTROLLER OUTDOOR AIR 7,Actuator,1
 Non-Parent Node Connection,NODE 351,CONTROLLER:OUTDOORAIR,CONTROLLER OUTDOOR AIR 7,Actuator,1
 Non-Parent Node Connection,NODE 105,CONTROLLER:OUTDOORAIR,CONTROLLER OUTDOOR AIR 7,Sensor,1
 Non-Parent Node Connection,NODE 125,CONTROLLER:OUTDOORAIR,CONTROLLER OUTDOOR AIR 8,Sensor,1
 Non-Parent Node Connection,NODE 121,CONTROLLER:OUTDOORAIR,CONTROLLER OUTDOOR AIR 8,Actuator,1
 Non-Parent Node Connection,NODE 353,CONTROLLER:OUTDOORAIR,CONTROLLER OUTDOOR AIR 8,Actuator,1
 Non-Parent Node Connection,NODE 116,CONTROLLER:OUTDOORAIR,CONTROLLER OUTDOOR AIR 8,Sensor,1
 Non-Parent Node Connection,NODE 158,CONTROLLER:OUTDOORAIR,CONTROLLER OUTDOOR AIR 11,Sensor,1
 Non-Parent Node Connection,NODE 154,CONTROLLER:OUTDOORAIR,CONTROLLER OUTDOOR AIR 11,Actuator,1
 Non-Parent Node Connection,NODE 355,CONTROLLER:OUTDOORAIR,CONTROLLER OUTDOOR AIR 11,Actuator,1
 Non-Parent Node Connection,NODE 149,CONTROLLER:OUTDOORAIR,CONTROLLER OUTDOOR AIR 11,Sensor,1
 Non-Parent Node Connection,NODE 257,CONTROLLER:OUTDOORAIR,CONTROLLER OUTDOOR AIR 20,Sensor,1
 Non-Parent Node Connection,NODE 253,CONTROLLER:OUTDOORAIR,CONTROLLER OUTDOOR AIR 20,Actuator,1
 Non-Parent Node Connection,NODE 357,CONTROLLER:OUTDOORAIR,CONTROLLER OUTDOOR AIR 20,Actuator,1
 Non-Parent Node Connection,NODE 248,CONTROLLER:OUTDOORAIR,CONTROLLER OUTDOOR AIR 20,Sensor,1
 Non-Parent Node Connection,NODE 235,CONTROLLER:OUTDOORAIR,CONTROLLER OUTDOOR AIR 18,Sensor,1
 Non-Parent Node Connection,NODE 231,CONTROLLER:OUTDOORAIR,CONTROLLER OUTDOOR AIR 18,Actuator,1
 Non-Parent Node Connection,NODE 359,CONTROLLER:OUTDOORAIR,CONTROLLER OUTDOOR AIR 18,Actuator,1
 Non-Parent Node Connection,NODE 226,CONTROLLER:OUTDOORAIR,CONTROLLER OUTDOOR AIR 18,Sensor,1
 Non-Parent Node Connection,NODE 202,CONTROLLER:OUTDOORAIR,CONTROLLER OUTDOOR AIR 15,Sensor,1
 Non-Parent Node Connection,NODE 198,CONTROLLER:OUTDOORAIR,CONTROLLER OUTDOOR AIR 15,Actuator,1
 Non-Parent Node Connection,NODE 361,CONTROLLER:OUTDOORAIR,CONTROLLER OUTDOOR AIR 15,Actuator,1
 Non-Parent Node Connection,NODE 193,CONTROLLER:OUTDOORAIR,CONTROLLER OUTDOOR AIR 15,Sensor,1
 Non-Parent Node Connection,NODE 224,CONTROLLER:OUTDOORAIR,CONTROLLER OUTDOOR AIR 17,Sensor,1
 Non-Parent Node Connection,NODE 220,CONTROLLER:OUTDOORAIR,CONTROLLER OUTDOOR AIR 17,Actuator,1
 Non-Parent Node Connection,NODE 363,CONTROLLER:OUTDOORAIR,CONTROLLER OUTDOOR AIR 17,Actuator,1
 Non-Parent Node Connection,NODE 215,CONTROLLER:OUTDOORAIR,CONTROLLER OUTDOOR AIR 17,Sensor,1
 Non-Parent Node Connection,NODE 180,CONTROLLER:OUTDOORAIR,CONTROLLER OUTDOOR AIR 13,Sensor,1
 Non-Parent Node Connection,NODE 176,CONTROLLER:OUTDOORAIR,CONTROLLER OUTDOOR AIR 13,Actuator,1
 Non-Parent Node Connection,NODE 365,CONTROLLER:OUTDOORAIR,CONTROLLER OUTDOOR AIR 13,Actuator,1
 Non-Parent Node Connection,NODE 171,CONTROLLER:OUTDOORAIR,CONTROLLER OUTDOOR AIR 13,Sensor,1
 Non-Parent Node Connection,NODE 66,CONTROLLER:OUTDOORAIR,CONTROLLER OUTDOOR AIR 3,Sensor,1
 Non-Parent Node Connection,NODE 60,CONTROLLER:OUTDOORAIR,CONTROLLER OUTDOOR AIR 3,Actuator,1
 Non-Parent Node Connection,NODE 367,CONTROLLER:OUTDOORAIR,CONTROLLER OUTDOOR AIR 3,Actuator,1
 Non-Parent Node Connection,NODE 53,CONTROLLER:OUTDOORAIR,CONTROLLER OUTDOOR AIR 3,Sensor,1
 Non-Parent Node Connection,NODE 81,CONTROLLER:OUTDOORAIR,CONTROLLER OUTDOOR AIR 4,Sensor,1
 Non-Parent Node Connection,NODE 77,CONTROLLER:OUTDOORAIR,CONTROLLER OUTDOOR AIR 4,Actuator,1
 Non-Parent Node Connection,NODE 369,CONTROLLER:OUTDOORAIR,CONTROLLER OUTDOOR AIR 4,Actuator,1
 Non-Parent Node Connection,NODE 69,CONTROLLER:OUTDOORAIR,CONTROLLER OUTDOOR AIR 4,Sensor,1
 Non-Parent Node Connection,NODE 191,CONTROLLER:OUTDOORAIR,CONTROLLER OUTDOOR AIR 14,Sensor,1
 Non-Parent Node Connection,NODE 187,CONTROLLER:OUTDOORAIR,CONTROLLER OUTDOOR AIR 14,Actuator,1
 Non-Parent Node Connection,NODE 371,CONTROLLER:OUTDOORAIR,CONTROLLER OUTDOOR AIR 14,Actuator,1
 Non-Parent Node Connection,NODE 182,CONTROLLER:OUTDOORAIR,CONTROLLER OUTDOOR AIR 14,Sensor,1
 Non-Parent Node Connection,NODE 246,CONTROLLER:OUTDOORAIR,CONTROLLER OUTDOOR AIR 19,Sensor,1
 Non-Parent Node Connection,NODE 242,CONTROLLER:OUTDOORAIR,CONTROLLER OUTDOOR AIR 19,Actuator,1
 Non-Parent Node Connection,NODE 373,CONTROLLER:OUTDOORAIR,CONTROLLER OUTDOOR AIR 19,Actuator,1
 Non-Parent Node Connection,NODE 237,CONTROLLER:OUTDOORAIR,CONTROLLER OUTDOOR AIR 19,Sensor,1
 Non-Parent Node Connection,NODE 15,CONTROLLER:OUTDOORAIR,CONTROLLER OUTDOOR AIR 1,Sensor,1
 Non-Parent Node Connection,NODE 9,CONTROLLER:OUTDOORAIR,CONTROLLER OUTDOOR AIR 1,Actuator,1
 Non-Parent Node Connection,NODE 375,CONTROLLER:OUTDOORAIR,CONTROLLER OUTDOOR AIR 1,Actuator,1
 Non-Parent Node Connection,NODE 2,CONTROLLER:OUTDOORAIR,CONTROLLER OUTDOOR AIR 1,Sensor,1
 Non-Parent Node Connection,NODE 35,CONTROLLER:OUTDOORAIR,CONTROLLER OUTDOOR AIR 2,Sensor,1
 Non-Parent Node Connection,NODE 29,CONTROLLER:OUTDOORAIR,CONTROLLER OUTDOOR AIR 2,Actuator,1
 Non-Parent Node Connection,NODE 377,CONTROLLER:OUTDOORAIR,CONTROLLER OUTDOOR AIR 2,Actuator,1
 Non-Parent Node Connection,NODE 21,CONTROLLER:OUTDOORAIR,CONTROLLER OUTDOOR AIR 2,Sensor,1
 Non-Parent Node Connection,NODE 168,COIL:HEATING:ELECTRIC,COIL HEATING ELECTRIC 12,Inlet,1
 Non-Parent Node Connection,NODE 385,COIL:HEATING:ELECTRIC,COIL HEATING ELECTRIC 12,Outlet,1
 Non-Parent Node Connection,NODE 161,COIL:HEATING:ELECTRIC,COIL HEATING ELECTRIC 12,Sensor,1
 Non-Parent Node Connection,NODE 91,COIL:HEATING:ELECTRIC,COIL HEATING ELECTRIC 5,Inlet,1
 Non-Parent Node Connection,NODE 397,COIL:HEATING:ELECTRIC,COIL HEATING ELECTRIC 5,Outlet,1
 Non-Parent Node Connection,NODE 84,COIL:HEATING:ELECTRIC,COIL HEATING ELECTRIC 5,Sensor,1
 Non-Parent Node Connection,NODE 135,COIL:HEATING:ELECTRIC,COIL HEATING ELECTRIC 9,Inlet,1
 Non-Parent Node Connection,NODE 419,COIL:HEATING:ELECTRIC,COIL HEATING ELECTRIC 9,Outlet,1
 Non-Parent Node Connection,NODE 128,COIL:HEATING:ELECTRIC,COIL HEATING ELECTRIC 9,Sensor,1
 Non-Parent Node Connection,NODE 146,COIL:HEATING:ELECTRIC,COIL HEATING ELECTRIC 10,Inlet,1
 Non-Parent Node Connection,NODE 421,COIL:HEATING:ELECTRIC,COIL HEATING ELECTRIC 10,Outlet,1
 Non-Parent Node Connection,NODE 139,COIL:HEATING:ELECTRIC,COIL HEATING ELECTRIC 10,Sensor,1
 Non-Parent Node Connection,NODE 212,COIL:HEATING:ELECTRIC,COIL HEATING ELECTRIC 16,Inlet,1
 Non-Parent Node Connection,NODE 399,COIL:HEATING:ELECTRIC,COIL HEATING ELECTRIC 16,Outlet,1
 Non-Parent Node Connection,NODE 205,COIL:HEATING:ELECTRIC,COIL HEATING ELECTRIC 16,Sensor,1
 Non-Parent Node Connection,NODE 102,COIL:HEATING:ELECTRIC,COIL HEATING ELECTRIC 6,Inlet,1
 Non-Parent Node Connection,NODE 393,COIL:HEATING:ELECTRIC,COIL HEATING ELECTRIC 6,Outlet,1
 Non-Parent Node Connection,NODE 95,COIL:HEATING:ELECTRIC,COIL HEATING ELECTRIC 6,Sensor,1
 Non-Parent Node Connection,NODE 113,COIL:HEATING:ELECTRIC,COIL HEATING ELECTRIC 7,Inlet,1
 Non-Parent Node Connection,NODE 403,COIL:HEATING:ELECTRIC,COIL HEATING ELECTRIC 7,Outlet,1
 Non-Parent Node Connection,NODE 106,COIL:HEATING:ELECTRIC,COIL HEATING ELECTRIC 7,Sensor,1
 Non-Parent Node Connection,NODE 124,COIL:HEATING:ELECTRIC,COIL HEATING ELECTRIC 8,Inlet,1
 Non-Parent Node Connection,NODE 410,COIL:HEATING:ELECTRIC,COIL HEATING ELECTRIC 8,Outlet,1
 Non-Parent Node Connection,NODE 117,COIL:HEATING:ELECTRIC,COIL HEATING ELECTRIC 8,Sensor,1
 Non-Parent Node Connection,NODE 157,COIL:HEATING:ELECTRIC,COIL HEATING ELECTRIC 11,Inlet,1
 Non-Parent Node Connection,NODE 389,COIL:HEATING:ELECTRIC,COIL HEATING ELECTRIC 11,Outlet,1
 Non-Parent Node Connection,NODE 150,COIL:HEATING:ELECTRIC,COIL HEATING ELECTRIC 11,Sensor,1
 Non-Parent Node Connection,NODE 256,COIL:HEATING:ELECTRIC,COIL HEATING ELECTRIC 20,Inlet,1
 Non-Parent Node Connection,NODE 387,COIL:HEATING:ELECTRIC,COIL HEATING ELECTRIC 20,Outlet,1
 Non-Parent Node Connection,NODE 249,COIL:HEATING:ELECTRIC,COIL HEATING ELECTRIC 20,Sensor,1
 Non-Parent Node Connection,NODE 234,COIL:HEATING:ELECTRIC,COIL HEATING ELECTRIC 18,Inlet,1
 Non-Parent Node Connection,NODE 379,COIL:HEATING:ELECTRIC,COIL HEATING ELECTRIC 18,Outlet,1
 Non-Parent Node Connection,NODE 227,COIL:HEATING:ELECTRIC,COIL HEATING ELECTRIC 18,Sensor,1
 Non-Parent Node Connection,NODE 201,COIL:HEATING:ELECTRIC,COIL HEATING ELECTRIC 15,Inlet,1
 Non-Parent Node Connection,NODE 381,COIL:HEATING:ELECTRIC,COIL HEATING ELECTRIC 15,Outlet,1
 Non-Parent Node Connection,NODE 194,COIL:HEATING:ELECTRIC,COIL HEATING ELECTRIC 15,Sensor,1
 Non-Parent Node Connection,NODE 223,COIL:HEATING:ELECTRIC,COIL HEATING ELECTRIC 17,Inlet,1
 Non-Parent Node Connection,NODE 395,COIL:HEATING:ELECTRIC,COIL HEATING ELECTRIC 17,Outlet,1
 Non-Parent Node Connection,NODE 216,COIL:HEATING:ELECTRIC,COIL HEATING ELECTRIC 17,Sensor,1
 Non-Parent Node Connection,NODE 179,COIL:HEATING:ELECTRIC,COIL HEATING ELECTRIC 13,Inlet,1
 Non-Parent Node Connection,NODE 391,COIL:HEATING:ELECTRIC,COIL HEATING ELECTRIC 13,Outlet,1
 Non-Parent Node Connection,NODE 172,COIL:HEATING:ELECTRIC,COIL HEATING ELECTRIC 13,Sensor,1
 Non-Parent Node Connection,NODE 65,COIL:HEATING:ELECTRIC,COIL HEATING ELECTRIC 3,Inlet,1
 Non-Parent Node Connection,NODE 401,COIL:HEATING:ELECTRIC,COIL HEATING ELECTRIC 3,Outlet,1
 Non-Parent Node Connection,NODE 54,COIL:HEATING:ELECTRIC,COIL HEATING ELECTRIC 3,Sensor,1
 Non-Parent Node Connection,NODE 80,COIL:HEATING:ELECTRIC,COIL HEATING ELECTRIC 4,Inlet,1
 Non-Parent Node Connection,NODE 408,COIL:HEATING:ELECTRIC,COIL HEATING ELECTRIC 4,Outlet,1
 Non-Parent Node Connection,NODE 71,COIL:HEATING:ELECTRIC,COIL HEATING ELECTRIC 4,Sensor,1
 Non-Parent Node Connection,NODE 190,COIL:HEATING:ELECTRIC,COIL HEATING ELECTRIC 14,Inlet,1
 Non-Parent Node Connection,NODE 383,COIL:HEATING:ELECTRIC,COIL HEATING ELECTRIC 14,Outlet,1
 Non-Parent Node Connection,NODE 183,COIL:HEATING:ELECTRIC,COIL HEATING ELECTRIC 14,Sensor,1
 Non-Parent Node Connection,NODE 245,COIL:HEATING:ELECTRIC,COIL HEATING ELECTRIC 19,Inlet,1
 Non-Parent Node Connection,NODE 337,COIL:HEATING:ELECTRIC,COIL HEATING ELECTRIC 19,Outlet,1
 Non-Parent Node Connection,NODE 238,COIL:HEATING:ELECTRIC,COIL HEATING ELECTRIC 19,Sensor,1
 Non-Parent Node Connection,NODE 14,COIL:HEATING:ELECTRIC,COIL HEATING ELECTRIC 1,Inlet,1
 Non-Parent Node Connection,NODE 405,COIL:HEATING:ELECTRIC,COIL HEATING ELECTRIC 1,Outlet,1
 Non-Parent Node Connection,NODE 3,COIL:HEATING:ELECTRIC,COIL HEATING ELECTRIC 1,Sensor,1
 Non-Parent Node Connection,NODE 33,COIL:HEATING:ELECTRIC,COIL HEATING ELECTRIC 2,Inlet,1
 Non-Parent Node Connection,NODE 412,COIL:HEATING:ELECTRIC,COIL HEATING ELECTRIC 2,Outlet,1
 Non-Parent Node Connection,NODE 23,COIL:HEATING:ELECTRIC,COIL HEATING ELECTRIC 2,Sensor,1
 Non-Parent Node Connection,NODE 259,PUMP:CONSTANTSPEED,SERVICE WATER LOOP PUMP,Inlet,1
 Non-Parent Node Connection,NODE 265,PUMP:CONSTANTSPEED,SERVICE WATER LOOP PUMP,Outlet,1
