Program Version,EnergyPlus, Version 8.9.0-eba93e8e1b, YMD=2019.08.13 18:30,
   ************* Beginning Zone Sizing Calculations
   ** Warning ** ProcessScheduleInput: Schedule:Day:Interval="ECONOMIZER MAX OA FRACTION 100 PCT DEFAULT", Blank Schedule Type Limits Name input -- will not be validated.
   ** Warning ** ProcessScheduleInput: Schedule:Day:Interval="SCHEDULE DAY 1", Blank Schedule Type Limits Name input -- will not be validated.
   ** Warning ** ProcessScheduleInput: Schedule:Day:Interval="SCHEDULE DAY 10", Blank Schedule Type Limits Name input -- will not be validated.
   ** Warning ** ProcessScheduleInput: Schedule:Day:Interval="SCHEDULE DAY 100", Blank Schedule Type Limits Name input -- will not be validated.
   ** Warning ** ProcessScheduleInput: Schedule:Day:Interval="SCHEDULE DAY 101", Blank Schedule Type Limits Name input -- will not be validated.
   ** Warning ** ProcessScheduleInput: Schedule:Day:Interval="SCHEDULE DAY 102", Blank Schedule Type Limits Name input -- will not be validated.
   ** Warning ** ProcessScheduleInput: Schedule:Day:Interval="SCHEDULE DAY 103", Blank Schedule Type Limits Name input -- will not be validated.
   ** Warning ** ProcessScheduleInput: Schedule:Day:Interval="SCHEDULE DAY 104", Blank Schedule Type Limits Name input -- will not be validated.
   ** Warning ** ProcessScheduleInput: Schedule:Day:Interval="SCHEDULE DAY 105", Blank Schedule Type Limits Name input -- will not be validated.
   ** Warning ** ProcessScheduleInput: Schedule:Day:Interval="SCHEDULE DAY 106", Blank Schedule Type Limits Name input -- will not be validated.
   ** Warning ** ProcessScheduleInput: Schedule:Day:Interval="SCHEDULE DAY 107", Blank Schedule Type Limits Name input -- will not be validated.
   ** Warning ** ProcessScheduleInput: Schedule:Day:Interval="SCHEDULE DAY 108", Blank Schedule Type Limits Name input -- will not be validated.
   ** Warning ** ProcessScheduleInput: Schedule:Day:Interval="SCHEDULE DAY 109", Blank Schedule Type Limits Name input -- will not be validated.
   ** Warning ** ProcessScheduleInput: Schedule:Day:Interval="SCHEDULE DAY 11", Blank Schedule Type Limits Name input -- will not be validated.
   ** Warning ** ProcessScheduleInput: Schedule:Day:Interval="SCHEDULE DAY 110", Blank Schedule Type Limits Name input -- will not be validated.
   ** Warning ** ProcessScheduleInput: Schedule:Day:Interval="SCHEDULE DAY 111", Blank Schedule Type Limits Name input -- will not be validated.
   ** Warning ** ProcessScheduleInput: Schedule:Day:Interval="SCHEDULE DAY 112", Blank Schedule Type Limits Name input -- will not be validated.
   ** Warning ** ProcessScheduleInput: Schedule:Day:Interval="SCHEDULE DAY 113", Blank Schedule Type Limits Name input -- will not be validated.
   ** Warning ** ProcessScheduleInput: Schedule:Day:Interval="SCHEDULE DAY 114", Blank Schedule Type Limits Name input -- will not be validated.
   ** Warning ** ProcessScheduleInput: Schedule:Day:Interval="SCHEDULE DAY 115", Blank Schedule Type Limits Name input -- will not be validated.
   ** Warning ** ProcessScheduleInput: Schedule:Day:Interval="SCHEDULE DAY 116", Blank Schedule Type Limits Name input -- will not be validated.
   ** Warning ** ProcessScheduleInput: Schedule:Day:Interval="SCHEDULE DAY 117", Blank Schedule Type Limits Name input -- will not be validated.
   ** Warning ** ProcessScheduleInput: Schedule:Day:Interval="SCHEDULE DAY 118", Blank Schedule Type Limits Name input -- will not be validated.
   ** Warning ** ProcessScheduleInput: Schedule:Day:Interval="SCHEDULE DAY 119", Blank Schedule Type Limits Name input -- will not be validated.
   ** Warning ** ProcessScheduleInput: Schedule:Day:Interval="SCHEDULE DAY 12", Blank Schedule Type Limits Name input -- will not be validated.
   ** Warning ** ProcessScheduleInput: Schedule:Day:Interval="SCHEDULE DAY 120", Blank Schedule Type Limits Name input -- will not be validated.
   ** Warning ** ProcessScheduleInput: Schedule:Day:Interval="SCHEDULE DAY 121", Blank Schedule Type Limits Name input -- will not be validated.
   ** Warning ** ProcessScheduleInput: Schedule:Day:Interval="SCHEDULE DAY 122", Blank Schedule Type Limits Name input -- will not be validated.
   ** Warning ** ProcessScheduleInput: Schedule:Day:Interval="SCHEDULE DAY 123", Blank Schedule Type Limits Name input -- will not be validated.
   ** Warning ** ProcessScheduleInput: Schedule:Day:Interval="SCHEDULE DAY 124", Blank Schedule Type Limits Name input -- will not be validated.
   ** Warning ** ProcessScheduleInput: Schedule:Day:Interval="SCHEDULE DAY 125", Blank Schedule Type Limits Name input -- will not be validated.
   ** Warning ** ProcessScheduleInput: Schedule:Day:Interval="SCHEDULE DAY 126", Blank Schedule Type Limits Name input -- will not be validated.
   ** Warning ** ProcessScheduleInput: Schedule:Day:Interval="SCHEDULE DAY 127", Blank Schedule Type Limits Name input -- will not be validated.
   ** Warning ** ProcessScheduleInput: Schedule:Day:Interval="SCHEDULE DAY 128", Blank Schedule Type Limits Name input -- will not be validated.
   ** Warning ** ProcessScheduleInput: Schedule:Day:Interval="SCHEDULE DAY 129", Blank Schedule Type Limits Name input -- will not be validated.
   ** Warning ** ProcessScheduleInput: Schedule:Day:Interval="SCHEDULE DAY 13", Blank Schedule Type Limits Name input -- will not be validated.
   ** Warning ** ProcessScheduleInput: Schedule:Day:Interval="SCHEDULE DAY 130", Blank Schedule Type Limits Name input -- will not be validated.
   ** Warning ** ProcessScheduleInput: Schedule:Day:Interval="SCHEDULE DAY 131", Blank Schedule Type Limits Name input -- will not be validated.
   ** Warning ** ProcessScheduleInput: Schedule:Day:Interval="SCHEDULE DAY 132", Blank Schedule Type Limits Name input -- will not be validated.
   ** Warning ** ProcessScheduleInput: Schedule:Day:Interval="SCHEDULE DAY 133", Blank Schedule Type Limits Name input -- will not be validated.
   ** Warning ** ProcessScheduleInput: Schedule:Day:Interval="SCHEDULE DAY 134", Blank Schedule Type Limits Name input -- will not be validated.
   ** Warning ** ProcessScheduleInput: Schedule:Day:Interval="SCHEDULE DAY 135", Blank Schedule Type Limits Name input -- will not be validated.
   ** Warning ** ProcessScheduleInput: Schedule:Day:Interval="SCHEDULE DAY 136", Blank Schedule Type Limits Name input -- will not be validated.
   ** Warning ** ProcessScheduleInput: Schedule:Day:Interval="SCHEDULE DAY 137", Blank Schedule Type Limits Name input -- will not be validated.
   ** Warning ** ProcessScheduleInput: Schedule:Day:Interval="SCHEDULE DAY 138", Blank Schedule Type Limits Name input -- will not be validated.
   ** Warning ** ProcessScheduleInput: Schedule:Day:Interval="SCHEDULE DAY 139", Blank Schedule Type Limits Name input -- will not be validated.
   ** Warning ** ProcessScheduleInput: Schedule:Day:Interval="SCHEDULE DAY 14", Blank Schedule Type Limits Name input -- will not be validated.
   ** Warning ** ProcessScheduleInput: Schedule:Day:Interval="SCHEDULE DAY 140", Blank Schedule Type Limits Name input -- will not be validated.
   ** Warning ** ProcessScheduleInput: Schedule:Day:Interval="SCHEDULE DAY 15", Blank Schedule Type Limits Name input -- will not be validated.
   ** Warning ** ProcessScheduleInput: Schedule:Day:Interval="SCHEDULE DAY 16", Blank Schedule Type Limits Name input -- will not be validated.
   ** Warning ** ProcessScheduleInput: Schedule:Day:Interval="SCHEDULE DAY 17", Blank Schedule Type Limits Name input -- will not be validated.
   ** Warning ** ProcessScheduleInput: Schedule:Day:Interval="SCHEDULE DAY 18", Blank Schedule Type Limits Name input -- will not be validated.
   ** Warning ** ProcessScheduleInput: Schedule:Day:Interval="SCHEDULE DAY 19", Blank Schedule Type Limits Name input -- will not be validated.
   ** Warning ** ProcessScheduleInput: Schedule:Day:Interval="SCHEDULE DAY 2", Blank Schedule Type Limits Name input -- will not be validated.
   ** Warning ** ProcessScheduleInput: Schedule:Day:Interval="SCHEDULE DAY 20", Blank Schedule Type Limits Name input -- will not be validated.
   ** Warning ** ProcessScheduleInput: Schedule:Day:Interval="SCHEDULE DAY 21", Blank Schedule Type Limits Name input -- will not be validated.
   ** Warning ** ProcessScheduleInput: Schedule:Day:Interval="SCHEDULE DAY 22", Blank Schedule Type Limits Name input -- will not be validated.
   ** Warning ** ProcessScheduleInput: Schedule:Day:Interval="SCHEDULE DAY 23", Blank Schedule Type Limits Name input -- will not be validated.
   ** Warning ** ProcessScheduleInput: Schedule:Day:Interval="SCHEDULE DAY 24", Blank Schedule Type Limits Name input -- will not be validated.
   ** Warning ** ProcessScheduleInput: Schedule:Day:Interval="SCHEDULE DAY 25", Blank Schedule Type Limits Name input -- will not be validated.
   ** Warning ** ProcessScheduleInput: Schedule:Day:Interval="SCHEDULE DAY 26", Blank Schedule Type Limits Name input -- will not be validated.
   ** Warning ** ProcessScheduleInput: Schedule:Day:Interval="SCHEDULE DAY 27", Blank Schedule Type Limits Name input -- will not be validated.
   ** Warning ** ProcessScheduleInput: Schedule:Day:Interval="SCHEDULE DAY 28", Blank Schedule Type Limits Name input -- will not be validated.
   ** Warning ** ProcessScheduleInput: Schedule:Day:Interval="SCHEDULE DAY 29", Blank Schedule Type Limits Name input -- will not be validated.
   ** Warning ** ProcessScheduleInput: Schedule:Day:Interval="SCHEDULE DAY 30", Blank Schedule Type Limits Name input -- will not be validated.
   ** Warning ** ProcessScheduleInput: Schedule:Day:Interval="SCHEDULE DAY 31", Blank Schedule Type Limits Name input -- will not be validated.
   ** Warning ** ProcessScheduleInput: Schedule:Day:Interval="SCHEDULE DAY 32", Blank Schedule Type Limits Name input -- will not be validated.
   ** Warning ** ProcessScheduleInput: Schedule:Day:Interval="SCHEDULE DAY 33", Blank Schedule Type Limits Name input -- will not be validated.
   ** Warning ** ProcessScheduleInput: Schedule:Day:Interval="SCHEDULE DAY 34", Blank Schedule Type Limits Name input -- will not be validated.
   ** Warning ** ProcessScheduleInput: Schedule:Day:Interval="SCHEDULE DAY 35", Blank Schedule Type Limits Name input -- will not be validated.
   ** Warning ** ProcessScheduleInput: Schedule:Day:Interval="SCHEDULE DAY 36", Blank Schedule Type Limits Name input -- will not be validated.
   ** Warning ** ProcessScheduleInput: Schedule:Day:Interval="SCHEDULE DAY 37", Blank Schedule Type Limits Name input -- will not be validated.
   ** Warning ** ProcessScheduleInput: Schedule:Day:Interval="SCHEDULE DAY 38", Blank Schedule Type Limits Name input -- will not be validated.
   ** Warning ** ProcessScheduleInput: Schedule:Day:Interval="SCHEDULE DAY 39", Blank Schedule Type Limits Name input -- will not be validated.
   ** Warning ** ProcessScheduleInput: Schedule:Day:Interval="SCHEDULE DAY 40", Blank Schedule Type Limits Name input -- will not be validated.
   ** Warning ** ProcessScheduleInput: Schedule:Day:Interval="SCHEDULE DAY 41", Blank Schedule Type Limits Name input -- will not be validated.
   ** Warning ** ProcessScheduleInput: Schedule:Day:Interval="SCHEDULE DAY 42", Blank Schedule Type Limits Name input -- will not be validated.
   ** Warning ** ProcessScheduleInput: Schedule:Day:Interval="SCHEDULE DAY 43", Blank Schedule Type Limits Name input -- will not be validated.
   ** Warning ** ProcessScheduleInput: Schedule:Day:Interval="SCHEDULE DAY 44", Blank Schedule Type Limits Name input -- will not be validated.
   ** Warning ** ProcessScheduleInput: Schedule:Day:Interval="SCHEDULE DAY 45", Blank Schedule Type Limits Name input -- will not be validated.
   ** Warning ** ProcessScheduleInput: Schedule:Day:Interval="SCHEDULE DAY 46", Blank Schedule Type Limits Name input -- will not be validated.
   ** Warning ** ProcessScheduleInput: Schedule:Day:Interval="SCHEDULE DAY 47", Blank Schedule Type Limits Name input -- will not be validated.
   ** Warning ** ProcessScheduleInput: Schedule:Day:Interval="SCHEDULE DAY 48", Blank Schedule Type Limits Name input -- will not be validated.
   ** Warning ** ProcessScheduleInput: Schedule:Day:Interval="SCHEDULE DAY 49", Blank Schedule Type Limits Name input -- will not be validated.
   ** Warning ** ProcessScheduleInput: Schedule:Day:Interval="SCHEDULE DAY 5", Blank Schedule Type Limits Name input -- will not be validated.
   ** Warning ** ProcessScheduleInput: Schedule:Day:Interval="SCHEDULE DAY 50", Blank Schedule Type Limits Name input -- will not be validated.
   ** Warning ** ProcessScheduleInput: Schedule:Day:Interval="SCHEDULE DAY 51", Blank Schedule Type Limits Name input -- will not be validated.
   ** Warning ** ProcessScheduleInput: Schedule:Day:Interval="SCHEDULE DAY 52", Blank Schedule Type Limits Name input -- will not be validated.
   ** Warning ** ProcessScheduleInput: Schedule:Day:Interval="SCHEDULE DAY 53", Blank Schedule Type Limits Name input -- will not be validated.
   ** Warning ** ProcessScheduleInput: Schedule:Day:Interval="SCHEDULE DAY 54", Blank Schedule Type Limits Name input -- will not be validated.
   ** Warning ** ProcessScheduleInput: Schedule:Day:Interval="SCHEDULE DAY 55", Blank Schedule Type Limits Name input -- will not be validated.
   ** Warning ** ProcessScheduleInput: Schedule:Day:Interval="SCHEDULE DAY 56", Blank Schedule Type Limits Name input -- will not be validated.
   ** Warning ** ProcessScheduleInput: Schedule:Day:Interval="SCHEDULE DAY 57", Blank Schedule Type Limits Name input -- will not be validated.
   ** Warning ** ProcessScheduleInput: Schedule:Day:Interval="SCHEDULE DAY 58", Blank Schedule Type Limits Name input -- will not be validated.
   ** Warning ** ProcessScheduleInput: Schedule:Day:Interval="SCHEDULE DAY 59", Blank Schedule Type Limits Name input -- will not be validated.
   ** Warning ** ProcessScheduleInput: Schedule:Day:Interval="SCHEDULE DAY 6", Blank Schedule Type Limits Name input -- will not be validated.
   ** Warning ** ProcessScheduleInput: Schedule:Day:Interval="SCHEDULE DAY 60", Blank Schedule Type Limits Name input -- will not be validated.
   ** Warning ** ProcessScheduleInput: Schedule:Day:Interval="SCHEDULE DAY 61", Blank Schedule Type Limits Name input -- will not be validated.
   ** Warning ** ProcessScheduleInput: Schedule:Day:Interval="SCHEDULE DAY 62", Blank Schedule Type Limits Name input -- will not be validated.
   ** Warning ** ProcessScheduleInput: Schedule:Day:Interval="SCHEDULE DAY 63", Blank Schedule Type Limits Name input -- will not be validated.
   ** Warning ** ProcessScheduleInput: Schedule:Day:Interval="SCHEDULE DAY 64", Blank Schedule Type Limits Name input -- will not be validated.
   ** Warning ** ProcessScheduleInput: Schedule:Day:Interval="SCHEDULE DAY 65", Blank Schedule Type Limits Name input -- will not be validated.
   ** Warning ** ProcessScheduleInput: Schedule:Day:Interval="SCHEDULE DAY 66", Blank Schedule Type Limits Name input -- will not be validated.
   ** Warning ** ProcessScheduleInput: Schedule:Day:Interval="SCHEDULE DAY 67", Blank Schedule Type Limits Name input -- will not be validated.
   ** Warning ** ProcessScheduleInput: Schedule:Day:Interval="SCHEDULE DAY 68", Blank Schedule Type Limits Name input -- will not be validated.
   ** Warning ** ProcessScheduleInput: Schedule:Day:Interval="SCHEDULE DAY 69", Blank Schedule Type Limits Name input -- will not be validated.
   ** Warning ** ProcessScheduleInput: Schedule:Day:Interval="SCHEDULE DAY 7", Blank Schedule Type Limits Name input -- will not be validated.
   ** Warning ** ProcessScheduleInput: Schedule:Day:Interval="SCHEDULE DAY 70", Blank Schedule Type Limits Name input -- will not be validated.
   ** Warning ** ProcessScheduleInput: Schedule:Day:Interval="SCHEDULE DAY 71", Blank Schedule Type Limits Name input -- will not be validated.
   ** Warning ** ProcessScheduleInput: Schedule:Day:Interval="SCHEDULE DAY 72", Blank Schedule Type Limits Name input -- will not be validated.
   ** Warning ** ProcessScheduleInput: Schedule:Day:Interval="SCHEDULE DAY 73", Blank Schedule Type Limits Name input -- will not be validated.
   ** Warning ** ProcessScheduleInput: Schedule:Day:Interval="SCHEDULE DAY 74", Blank Schedule Type Limits Name input -- will not be validated.
   ** Warning ** ProcessScheduleInput: Schedule:Day:Interval="SCHEDULE DAY 75", Blank Schedule Type Limits Name input -- will not be validated.
   ** Warning ** ProcessScheduleInput: Schedule:Day:Interval="SCHEDULE DAY 76", Blank Schedule Type Limits Name input -- will not be validated.
   ** Warning ** ProcessScheduleInput: Schedule:Day:Interval="SCHEDULE DAY 77", Blank Schedule Type Limits Name input -- will not be validated.
   ** Warning ** ProcessScheduleInput: Schedule:Day:Interval="SCHEDULE DAY 78", Blank Schedule Type Limits Name input -- will not be validated.
   ** Warning ** ProcessScheduleInput: Schedule:Day:Interval="SCHEDULE DAY 79", Blank Schedule Type Limits Name input -- will not be validated.
   ** Warning ** ProcessScheduleInput: Schedule:Day:Interval="SCHEDULE DAY 8", Blank Schedule Type Limits Name input -- will not be validated.
   ** Warning ** ProcessScheduleInput: Schedule:Day:Interval="SCHEDULE DAY 80", Blank Schedule Type Limits Name input -- will not be validated.
   ** Warning ** ProcessScheduleInput: Schedule:Day:Interval="SCHEDULE DAY 81", Blank Schedule Type Limits Name input -- will not be validated.
   ** Warning ** ProcessScheduleInput: Schedule:Day:Interval="SCHEDULE DAY 82", Blank Schedule Type Limits Name input -- will not be validated.
   ** Warning ** ProcessScheduleInput: Schedule:Day:Interval="SCHEDULE DAY 83", Blank Schedule Type Limits Name input -- will not be validated.
   ** Warning ** ProcessScheduleInput: Schedule:Day:Interval="SCHEDULE DAY 84", Blank Schedule Type Limits Name input -- will not be validated.
   ** Warning ** ProcessScheduleInput: Schedule:Day:Interval="SCHEDULE DAY 85", Blank Schedule Type Limits Name input -- will not be validated.
   ** Warning ** ProcessScheduleInput: Schedule:Day:Interval="SCHEDULE DAY 86", Blank Schedule Type Limits Name input -- will not be validated.
   ** Warning ** ProcessScheduleInput: Schedule:Day:Interval="SCHEDULE DAY 87", Blank Schedule Type Limits Name input -- will not be validated.
   ** Warning ** ProcessScheduleInput: Schedule:Day:Interval="SCHEDULE DAY 88", Blank Schedule Type Limits Name input -- will not be validated.
   ** Warning ** ProcessScheduleInput: Schedule:Day:Interval="SCHEDULE DAY 89", Blank Schedule Type Limits Name input -- will not be validated.
   ** Warning ** ProcessScheduleInput: Schedule:Day:Interval="SCHEDULE DAY 9", Blank Schedule Type Limits Name input -- will not be validated.
   ** Warning ** ProcessScheduleInput: Schedule:Day:Interval="SCHEDULE DAY 90", Blank Schedule Type Limits Name input -- will not be validated.
   ** Warning ** ProcessScheduleInput: Schedule:Day:Interval="SCHEDULE DAY 91", Blank Schedule Type Limits Name input -- will not be validated.
   ** Warning ** ProcessScheduleInput: Schedule:Day:Interval="SCHEDULE DAY 92", Blank Schedule Type Limits Name input -- will not be validated.
   ** Warning ** ProcessScheduleInput: Schedule:Day:Interval="SCHEDULE DAY 93", Blank Schedule Type Limits Name input -- will not be validated.
   ** Warning ** ProcessScheduleInput: Schedule:Day:Interval="SCHEDULE DAY 94", Blank Schedule Type Limits Name input -- will not be validated.
   ** Warning ** ProcessScheduleInput: Schedule:Day:Interval="SCHEDULE DAY 95", Blank Schedule Type Limits Name input -- will not be validated.
   ** Warning ** ProcessScheduleInput: Schedule:Day:Interval="SCHEDULE DAY 96", Blank Schedule Type Limits Name input -- will not be validated.
   ** Warning ** ProcessScheduleInput: Schedule:Day:Interval="SCHEDULE DAY 97", Blank Schedule Type Limits Name input -- will not be validated.
   ** Warning ** ProcessScheduleInput: Schedule:Day:Interval="SCHEDULE DAY 98", Blank Schedule Type Limits Name input -- will not be validated.
   ** Warning ** ProcessScheduleInput: Schedule:Day:Interval="SCHEDULE DAY 99", Blank Schedule Type Limits Name input -- will not be validated.
   ** Warning ** ProcessScheduleInput: Schedule:Year="ECONOMIZER MAX OA FRACTION 100 PCT", Blank Schedule Type Limits Name input -- will not be validated.
   ** Warning ** ProcessScheduleInput: Schedule:Year="SCHEDULE RULESET 10", Blank Schedule Type Limits Name input -- will not be validated.
   ** Warning ** ProcessScheduleInput: Schedule:Year="SCHEDULE RULESET 11", Blank Schedule Type Limits Name input -- will not be validated.
   ** Warning ** ProcessScheduleInput: Schedule:Year="SCHEDULE RULESET 12", Blank Schedule Type Limits Name input -- will not be validated.
   ** Warning ** ProcessScheduleInput: Schedule:Year="SCHEDULE RULESET 13", Blank Schedule Type Limits Name input -- will not be validated.
   ** Warning ** ProcessScheduleInput: Schedule:Year="SCHEDULE RULESET 14", Blank Schedule Type Limits Name input -- will not be validated.
   ** Warning ** ProcessScheduleInput: Schedule:Year="SCHEDULE RULESET 15", Blank Schedule Type Limits Name input -- will not be validated.
   ** Warning ** ProcessScheduleInput: Schedule:Year="SCHEDULE RULESET 16", Blank Schedule Type Limits Name input -- will not be validated.
   ** Warning ** ProcessScheduleInput: Schedule:Year="SCHEDULE RULESET 17", Blank Schedule Type Limits Name input -- will not be validated.
   ** Warning ** ProcessScheduleInput: Schedule:Year="SCHEDULE RULESET 18", Blank Schedule Type Limits Name input -- will not be validated.
   ** Warning ** ProcessScheduleInput: Schedule:Year="SCHEDULE RULESET 19", Blank Schedule Type Limits Name input -- will not be validated.
   ** Warning ** ProcessScheduleInput: Schedule:Year="SCHEDULE RULESET 20", Blank Schedule Type Limits Name input -- will not be validated.
   ** Warning ** ProcessScheduleInput: Schedule:Year="SCHEDULE RULESET 21", Blank Schedule Type Limits Name input -- will not be validated.
   ** Warning ** ProcessScheduleInput: Schedule:Year="SCHEDULE RULESET 22", Blank Schedule Type Limits Name input -- will not be validated.
   ** Warning ** ProcessScheduleInput: Schedule:Year="SCHEDULE RULESET 23", Blank Schedule Type Limits Name input -- will not be validated.
   ** Warning ** ProcessScheduleInput: Schedule:Year="SCHEDULE RULESET 24", Blank Schedule Type Limits Name input -- will not be validated.
   ** Warning ** ProcessScheduleInput: Schedule:Year="SCHEDULE RULESET 25", Blank Schedule Type Limits Name input -- will not be validated.
   ** Warning ** ProcessScheduleInput: Schedule:Year="SCHEDULE RULESET 26", Blank Schedule Type Limits Name input -- will not be validated.
   ** Warning ** ProcessScheduleInput: Schedule:Year="SCHEDULE RULESET 27", Blank Schedule Type Limits Name input -- will not be validated.
   ** Warning ** ProcessScheduleInput: Schedule:Year="SCHEDULE RULESET 28", Blank Schedule Type Limits Name input -- will not be validated.
   ** Warning ** ProcessScheduleInput: Schedule:Year="SCHEDULE RULESET 29", Blank Schedule Type Limits Name input -- will not be validated.
   ** Warning ** ProcessScheduleInput: Schedule:Year="SCHEDULE RULESET 3", Blank Schedule Type Limits Name input -- will not be validated.
   ** Warning ** ProcessScheduleInput: Schedule:Year="SCHEDULE RULESET 30", Blank Schedule Type Limits Name input -- will not be validated.
   ** Warning ** ProcessScheduleInput: Schedule:Year="SCHEDULE RULESET 31", Blank Schedule Type Limits Name input -- will not be validated.
   ** Warning ** ProcessScheduleInput: Schedule:Year="SCHEDULE RULESET 32", Blank Schedule Type Limits Name input -- will not be validated.
   ** Warning ** ProcessScheduleInput: Schedule:Year="SCHEDULE RULESET 33", Blank Schedule Type Limits Name input -- will not be validated.
   ** Warning ** ProcessScheduleInput: Schedule:Year="SCHEDULE RULESET 34", Blank Schedule Type Limits Name input -- will not be validated.
   ** Warning ** ProcessScheduleInput: Schedule:Year="SCHEDULE RULESET 35", Blank Schedule Type Limits Name input -- will not be validated.
   ** Warning ** ProcessScheduleInput: Schedule:Year="SCHEDULE RULESET 36", Blank Schedule Type Limits Name input -- will not be validated.
   ** Warning ** ProcessScheduleInput: Schedule:Year="SCHEDULE RULESET 37", Blank Schedule Type Limits Name input -- will not be validated.
   ** Warning ** ProcessScheduleInput: Schedule:Year="SCHEDULE RULESET 38", Blank Schedule Type Limits Name input -- will not be validated.
   ** Warning ** ProcessScheduleInput: Schedule:Year="SCHEDULE RULESET 39", Blank Schedule Type Limits Name input -- will not be validated.
   ** Warning ** ProcessScheduleInput: Schedule:Year="SCHEDULE RULESET 4", Blank Schedule Type Limits Name input -- will not be validated.
   ** Warning ** ProcessScheduleInput: Schedule:Year="SCHEDULE RULESET 40", Blank Schedule Type Limits Name input -- will not be validated.
   ** Warning ** ProcessScheduleInput: Schedule:Year="SCHEDULE RULESET 41", Blank Schedule Type Limits Name input -- will not be validated.
   ** Warning ** ProcessScheduleInput: Schedule:Year="SCHEDULE RULESET 42", Blank Schedule Type Limits Name input -- will not be validated.
   ** Warning ** ProcessScheduleInput: Schedule:Year="SCHEDULE RULESET 43", Blank Schedule Type Limits Name input -- will not be validated.
   ** Warning ** ProcessScheduleInput: Schedule:Year="SCHEDULE RULESET 44", Blank Schedule Type Limits Name input -- will not be validated.
   ** Warning ** ProcessScheduleInput: Schedule:Year="SCHEDULE RULESET 45", Blank Schedule Type Limits Name input -- will not be validated.
   ** Warning ** ProcessScheduleInput: Schedule:Year="SCHEDULE RULESET 46", Blank Schedule Type Limits Name input -- will not be validated.
   ** Warning ** ProcessScheduleInput: Schedule:Year="SCHEDULE RULESET 47", Blank Schedule Type Limits Name input -- will not be validated.
   ** Warning ** ProcessScheduleInput: Schedule:Year="SCHEDULE RULESET 48", Blank Schedule Type Limits Name input -- will not be validated.
   ** Warning ** ProcessScheduleInput: Schedule:Year="SCHEDULE RULESET 49", Blank Schedule Type Limits Name input -- will not be validated.
   ** Warning ** ProcessScheduleInput: Schedule:Year="SCHEDULE RULESET 5", Blank Schedule Type Limits Name input -- will not be validated.
   ** Warning ** ProcessScheduleInput: Schedule:Year="SCHEDULE RULESET 50", Blank Schedule Type Limits Name input -- will not be validated.
   ** Warning ** ProcessScheduleInput: Schedule:Year="SCHEDULE RULESET 51", Blank Schedule Type Limits Name input -- will not be validated.
   ** Warning ** ProcessScheduleInput: Schedule:Year="SCHEDULE RULESET 52", Blank Schedule Type Limits Name input -- will not be validated.
   ** Warning ** ProcessScheduleInput: Schedule:Year="SCHEDULE RULESET 53", Blank Schedule Type Limits Name input -- will not be validated.
   ** Warning ** ProcessScheduleInput: Schedule:Year="SCHEDULE RULESET 54", Blank Schedule Type Limits Name input -- will not be validated.
   ** Warning ** ProcessScheduleInput: Schedule:Year="SCHEDULE RULESET 55", Blank Schedule Type Limits Name input -- will not be validated.
   ** Warning ** ProcessScheduleInput: Schedule:Year="SCHEDULE RULESET 56", Blank Schedule Type Limits Name input -- will not be validated.
   ** Warning ** ProcessScheduleInput: Schedule:Year="SCHEDULE RULESET 57", Blank Schedule Type Limits Name input -- will not be validated.
   ** Warning ** ProcessScheduleInput: Schedule:Year="SCHEDULE RULESET 58", Blank Schedule Type Limits Name input -- will not be validated.
   ** Warning ** ProcessScheduleInput: Schedule:Year="SCHEDULE RULESET 59", Blank Schedule Type Limits Name input -- will not be validated.
   ** Warning ** ProcessScheduleInput: Schedule:Year="SCHEDULE RULESET 6", Blank Schedule Type Limits Name input -- will not be validated.
   ** Warning ** ProcessScheduleInput: Schedule:Year="SCHEDULE RULESET 60", Blank Schedule Type Limits Name input -- will not be validated.
   ** Warning ** ProcessScheduleInput: Schedule:Year="SCHEDULE RULESET 61", Blank Schedule Type Limits Name input -- will not be validated.
   ** Warning ** ProcessScheduleInput: Schedule:Year="SCHEDULE RULESET 62", Blank Schedule Type Limits Name input -- will not be validated.
   ** Warning ** ProcessScheduleInput: Schedule:Year="SCHEDULE RULESET 63", Blank Schedule Type Limits Name input -- will not be validated.
   ** Warning ** ProcessScheduleInput: Schedule:Year="SCHEDULE RULESET 64", Blank Schedule Type Limits Name input -- will not be validated.
   ** Warning ** ProcessScheduleInput: Schedule:Year="SCHEDULE RULESET 65", Blank Schedule Type Limits Name input -- will not be validated.
   ** Warning ** ProcessScheduleInput: Schedule:Year="SCHEDULE RULESET 66", Blank Schedule Type Limits Name input -- will not be validated.
   ** Warning ** ProcessScheduleInput: Schedule:Year="SCHEDULE RULESET 67", Blank Schedule Type Limits Name input -- will not be validated.
   ** Warning ** ProcessScheduleInput: Schedule:Year="SCHEDULE RULESET 68", Blank Schedule Type Limits Name input -- will not be validated.
   ** Warning ** ProcessScheduleInput: Schedule:Year="SCHEDULE RULESET 69", Blank Schedule Type Limits Name input -- will not be validated.
   ** Warning ** ProcessScheduleInput: Schedule:Year="SCHEDULE RULESET 7", Blank Schedule Type Limits Name input -- will not be validated.
   ** Warning ** ProcessScheduleInput: Schedule:Year="SCHEDULE RULESET 70", Blank Schedule Type Limits Name input -- will not be validated.
   ** Warning ** ProcessScheduleInput: Schedule:Year="SCHEDULE RULESET 71", Blank Schedule Type Limits Name input -- will not be validated.
   ** Warning ** ProcessScheduleInput: Schedule:Year="SCHEDULE RULESET 72", Blank Schedule Type Limits Name input -- will not be validated.
   ** Warning ** ProcessScheduleInput: Schedule:Year="SCHEDULE RULESET 73", Blank Schedule Type Limits Name input -- will not be validated.
   ** Warning ** ProcessScheduleInput: Schedule:Year="SCHEDULE RULESET 74", Blank Schedule Type Limits Name input -- will not be validated.
   ** Warning ** ProcessScheduleInput: Schedule:Year="SCHEDULE RULESET 75", Blank Schedule Type Limits Name input -- will not be validated.
   ** Warning ** ProcessScheduleInput: Schedule:Year="SCHEDULE RULESET 76", Blank Schedule Type Limits Name input -- will not be validated.
   ** Warning ** ProcessScheduleInput: Schedule:Year="SCHEDULE RULESET 77", Blank Schedule Type Limits Name input -- will not be validated.
   ** Warning ** ProcessScheduleInput: Schedule:Year="SCHEDULE RULESET 78", Blank Schedule Type Limits Name input -- will not be validated.
   ** Warning ** ProcessScheduleInput: Schedule:Year="SCHEDULE RULESET 79", Blank Schedule Type Limits Name input -- will not be validated.
   ** Warning ** ProcessScheduleInput: Schedule:Year="SCHEDULE RULESET 8", Blank Schedule Type Limits Name input -- will not be validated.
   ** Warning ** ProcessScheduleInput: Schedule:Year="SCHEDULE RULESET 80", Blank Schedule Type Limits Name input -- will not be validated.
   ** Warning ** ProcessScheduleInput: Schedule:Year="SCHEDULE RULESET 81", Blank Schedule Type Limits Name input -- will not be validated.
   ** Warning ** ProcessScheduleInput: Schedule:Year="SCHEDULE RULESET 82", Blank Schedule Type Limits Name input -- will not be validated.
   ** Warning ** ProcessScheduleInput: Schedule:Year="SCHEDULE RULESET 83", Blank Schedule Type Limits Name input -- will not be validated.
   ** Warning ** ProcessScheduleInput: Schedule:Year="SCHEDULE RULESET 84", Blank Schedule Type Limits Name input -- will not be validated.
   ** Warning ** ProcessScheduleInput: Schedule:Year="SCHEDULE RULESET 85", Blank Schedule Type Limits Name input -- will not be validated.
   ** Warning ** ProcessScheduleInput: Schedule:Year="SCHEDULE RULESET 86", Blank Schedule Type Limits Name input -- will not be validated.
   ** Warning ** ProcessScheduleInput: Schedule:Year="SCHEDULE RULESET 87", Blank Schedule Type Limits Name input -- will not be validated.
   ** Warning ** ProcessScheduleInput: Schedule:Year="SCHEDULE RULESET 88", Blank Schedule Type Limits Name input -- will not be validated.
   ** Warning ** ProcessScheduleInput: Schedule:Year="SCHEDULE RULESET 89", Blank Schedule Type Limits Name input -- will not be validated.
   ** Warning ** ProcessScheduleInput: Schedule:Year="SCHEDULE RULESET 9", Blank Schedule Type Limits Name input -- will not be validated.
   ** Warning ** ProcessScheduleInput: Schedule:Year="SCHEDULE RULESET 90", Blank Schedule Type Limits Name input -- will not be validated.
   ** Warning ** ProcessScheduleInput: Schedule:Year="SCHEDULE RULESET 91", Blank Schedule Type Limits Name input -- will not be validated.
   ** Warning ** ProcessScheduleInput: Schedule:Year="SCHEDULE RULESET 92", Blank Schedule Type Limits Name input -- will not be validated.
   ** Warning ** ProcessScheduleInput: Schedule:Year="SCHEDULE RULESET 93", Blank Schedule Type Limits Name input -- will not be validated.
   ** Warning ** ProcessScheduleInput: Schedule:Year="SCHEDULE RULESET 94", Blank Schedule Type Limits Name input -- will not be validated.
   ** Warning ** ProcessScheduleInput: Schedule:Year="SCHEDULE RULESET 95", Blank Schedule Type Limits Name input -- will not be validated.
   ** Warning ** ProcessScheduleInput: Schedule:Year="SCHEDULE RULESET 96", Blank Schedule Type Limits Name input -- will not be validated.
   ** Warning ** ProcessScheduleInput: Schedule:Year="SCHEDULE RULESET 97", Blank Schedule Type Limits Name input -- will not be validated.
   ** Warning ** ProcessScheduleInput: Schedule:Year="SCHEDULE RULESET 98", Blank Schedule Type Limits Name input -- will not be validated.
   ** Warning ** ProcessScheduleInput: Schedule:Constant="ALWAYS ON CONTINUOUS", Blank Schedule Type Limits Name input -- will not be validated.
   ** Warning ** CheckUsedConstructions: There are 20 nominally unused constructions in input.
   **   ~~~   ** For explicit details on each unused construction, use Output:Diagnostics,DisplayExtraWarnings;
   ** Warning ** GetInternalHeatGains: People Combination of ZoneList and Object Name generate a name too long.
   **   ~~~   ** Object Name="SPACE FUNCTION AUDIENCE SEATING AREA PERMANENT - AUDITORIUM PEOPLE".
   **   ~~~   ** ZoneList/Zone Name="ALL_ST=AUDIENCE SEATING AREA PERMANENT - AUDITORIUM_FL=BUILDING STORY 1_SCH=C".
   **   ~~~   ** Item length=[143] > Maximum Length=[100]. You may need to shorten the names.
   **   ~~~   ** Shortening the Object Name by [44] characters will assure uniqueness for this ZoneList.
   **   ~~~   ** name that will be used (may be needed in reporting)="ALL_ST=AUDIENCE SEATING AREA PERMANENT - AUDITORIUM_FL=BUILDING STORY 1_SCH=C SPACE FUNCTION AUDIENCE SEATING AREA PERMANENT - AUDITORIUM PEOPLE".
   ** Warning ** GetInternalHeatGains: People Combination of ZoneList and Object Name generate a name too long.
   **   ~~~   ** Object Name="SPACE FUNCTION CLASSROOM/LECTURE HALL/TRAINING ROOM OTHER PEOPLE".
   **   ~~~   ** ZoneList/Zone Name="ALL_ST=CLASSROOM/LECTURE HALL/TRAINING ROOM OTHER_FL=BUILDING STORY 1_SCH=D".
   **   ~~~   ** Item length=[139] > Maximum Length=[100]. You may need to shorten the names.
   **   ~~~   ** Shortening the Object Name by [42] characters will assure uniqueness for this ZoneList.
   **   ~~~   ** name that will be used (may be needed in reporting)="ALL_ST=CLASSROOM/LECTURE HALL/TRAINING ROOM OTHER_FL=BUILDING STORY 1_SCH=D SPACE FUNCTION CLASSROOM/LECTURE HALL/TRAINING ROOM OTHER PEOPLE".
   ** Warning ** GetInternalHeatGains: People Combination of ZoneList and Object Name generate a name too long.
   **   ~~~   ** Object Name="SPACE FUNCTION CLASSROOM/LECTURE HALL/TRAINING ROOM OTHER PEOPLE".
   **   ~~~   ** ZoneList/Zone Name="ALL_ST=CLASSROOM/LECTURE HALL/TRAINING ROOM OTHER_FL=BUILDING STORY 1_SCH=D 1".
   **   ~~~   ** Item length=[141] > Maximum Length=[100]. You may need to shorten the names.
   **   ~~~   ** Shortening the Object Name by [42] characters will assure uniqueness for this ZoneList.
   **   ~~~   ** name that will be used (may be needed in reporting)="ALL_ST=CLASSROOM/LECTURE HALL/TRAINING ROOM OTHER_FL=BUILDING STORY 1_SCH=D 1 SPACE FUNCTION CLASSROOM/LECTURE HALL/TRAINING ROOM OTHER PEOPLE".
   ** Warning ** GetInternalHeatGains: People Combination of ZoneList and Object Name generate a name too long.
   **   ~~~   ** Object Name="SPACE FUNCTION CLASSROOM/LECTURE HALL/TRAINING ROOM OTHER PEOPLE".
   **   ~~~   ** ZoneList/Zone Name="ALL_ST=CLASSROOM/LECTURE HALL/TRAINING ROOM OTHER_FL=BUILDING STORY 1_SCH=D 2".
   **   ~~~   ** Item length=[141] > Maximum Length=[100]. You may need to shorten the names.
   **   ~~~   ** Shortening the Object Name by [42] characters will assure uniqueness for this ZoneList.
   **   ~~~   ** name that will be used (may be needed in reporting)="ALL_ST=CLASSROOM/LECTURE HALL/TRAINING ROOM OTHER_FL=BUILDING STORY 1_SCH=D 2 SPACE FUNCTION CLASSROOM/LECTURE HALL/TRAINING ROOM OTHER PEOPLE".
   ** Warning ** GetInternalHeatGains: People Combination of ZoneList and Object Name generate a name too long.
   **   ~~~   ** Object Name="SPACE FUNCTION CLASSROOM/LECTURE HALL/TRAINING ROOM OTHER PEOPLE".
   **   ~~~   ** ZoneList/Zone Name="ALL_ST=CLASSROOM/LECTURE HALL/TRAINING ROOM OTHER_FL=BUILDING STORY 1_SCH=D 3".
   **   ~~~   ** Item length=[141] > Maximum Length=[100]. You may need to shorten the names.
   **   ~~~   ** Shortening the Object Name by [42] characters will assure uniqueness for this ZoneList.
   **   ~~~   ** name that will be used (may be needed in reporting)="ALL_ST=CLASSROOM/LECTURE HALL/TRAINING ROOM OTHER_FL=BUILDING STORY 1_SCH=D 3 SPACE FUNCTION CLASSROOM/LECTURE HALL/TRAINING ROOM OTHER PEOPLE".
   ** Warning ** GetInternalHeatGains: People Combination of ZoneList and Object Name generate a name too long.
   **   ~~~   ** Object Name="SPACE FUNCTION CLASSROOM/LECTURE HALL/TRAINING ROOM OTHER PEOPLE".
   **   ~~~   ** ZoneList/Zone Name="ALL_ST=CLASSROOM/LECTURE HALL/TRAINING ROOM OTHER_FL=BUILDING STORY 2_SCH=D".
   **   ~~~   ** Item length=[139] > Maximum Length=[100]. You may need to shorten the names.
   **   ~~~   ** Shortening the Object Name by [42] characters will assure uniqueness for this ZoneList.
   **   ~~~   ** name that will be used (may be needed in reporting)="ALL_ST=CLASSROOM/LECTURE HALL/TRAINING ROOM OTHER_FL=BUILDING STORY 2_SCH=D SPACE FUNCTION CLASSROOM/LECTURE HALL/TRAINING ROOM OTHER PEOPLE".
   ** Warning ** GetInternalHeatGains: People Combination of ZoneList and Object Name generate a name too long.
   **   ~~~   ** Object Name="SPACE FUNCTION CLASSROOM/LECTURE HALL/TRAINING ROOM OTHER PEOPLE".
   **   ~~~   ** ZoneList/Zone Name="ALL_ST=CLASSROOM/LECTURE HALL/TRAINING ROOM OTHER_FL=BUILDING STORY 2_SCH=D 1".
   **   ~~~   ** Item length=[141] > Maximum Length=[100]. You may need to shorten the names.
   **   ~~~   ** Shortening the Object Name by [42] characters will assure uniqueness for this ZoneList.
   **   ~~~   ** name that will be used (may be needed in reporting)="ALL_ST=CLASSROOM/LECTURE HALL/TRAINING ROOM OTHER_FL=BUILDING STORY 2_SCH=D 1 SPACE FUNCTION CLASSROOM/LECTURE HALL/TRAINING ROOM OTHER PEOPLE".
   ** Warning ** GetInternalHeatGains: People Combination of ZoneList and Object Name generate a name too long.
   **   ~~~   ** Object Name="SPACE FUNCTION CLASSROOM/LECTURE HALL/TRAINING ROOM OTHER PEOPLE".
   **   ~~~   ** ZoneList/Zone Name="ALL_ST=CLASSROOM/LECTURE HALL/TRAINING ROOM OTHER_FL=BUILDING STORY 2_SCH=D 2".
   **   ~~~   ** Item length=[141] > Maximum Length=[100]. You may need to shorten the names.
   **   ~~~   ** Shortening the Object Name by [42] characters will assure uniqueness for this ZoneList.
   **   ~~~   ** name that will be used (may be needed in reporting)="ALL_ST=CLASSROOM/LECTURE HALL/TRAINING ROOM OTHER_FL=BUILDING STORY 2_SCH=D 2 SPACE FUNCTION CLASSROOM/LECTURE HALL/TRAINING ROOM OTHER PEOPLE".
   ** Warning ** GetInternalHeatGains: People Combination of ZoneList and Object Name generate a name too long.
   **   ~~~   ** Object Name="SPACE FUNCTION CLASSROOM/LECTURE HALL/TRAINING ROOM OTHER PEOPLE".
   **   ~~~   ** ZoneList/Zone Name="ALL_ST=CLASSROOM/LECTURE HALL/TRAINING ROOM OTHER_FL=BUILDING STORY 2_SCH=D 3".
   **   ~~~   ** Item length=[141] > Maximum Length=[100]. You may need to shorten the names.
   **   ~~~   ** Shortening the Object Name by [42] characters will assure uniqueness for this ZoneList.
   **   ~~~   ** name that will be used (may be needed in reporting)="ALL_ST=CLASSROOM/LECTURE HALL/TRAINING ROOM OTHER_FL=BUILDING STORY 2_SCH=D 3 SPACE FUNCTION CLASSROOM/LECTURE HALL/TRAINING ROOM OTHER PEOPLE".
   ** Warning ** GetInternalHeatGains: People Combination of ZoneList and Object Name generate a name too long.
   **   ~~~   ** Object Name="SPACE FUNCTION CONFERENCE/MEETING/MULTI-PURPOSE ROOM PEOPLE".
   **   ~~~   ** ZoneList/Zone Name="ALL_ST=CONFERENCE/MEETING/MULTI-PURPOSE ROOM_FL=BUILDING STORY 1_SCH=C".
   **   ~~~   ** Item length=[129] > Maximum Length=[100]. You may need to shorten the names.
   **   ~~~   ** Shortening the Object Name by [30] characters will assure uniqueness for this ZoneList.
   **   ~~~   ** name that will be used (may be needed in reporting)="ALL_ST=CONFERENCE/MEETING/MULTI-PURPOSE ROOM_FL=BUILDING STORY 1_SCH=C SPACE FUNCTION CONFERENCE/MEETING/MULTI-PURPOSE ROOM PEOPLE".
   ** Warning ** GetInternalHeatGains: People Combination of ZoneList and Object Name generate a name too long.
   **   ~~~   ** Object Name="SPACE FUNCTION CORRIDOR/TRANSITION AREA OTHER-SCH-D PEOPLE".
   **   ~~~   ** ZoneList/Zone Name="WILD_ST=CORRIDOR/TRANSITION AREA OTHER-SCH-D_FL=BUILDING STORY 1_SCH=D".
   **   ~~~   ** Item length=[128] > Maximum Length=[100]. You may need to shorten the names.
   **   ~~~   ** Shortening the Object Name by [31] characters will assure uniqueness for this ZoneList.
   **   ~~~   ** name that will be used (may be needed in reporting)="WILD_ST=CORRIDOR/TRANSITION AREA OTHER-SCH-D_FL=BUILDING STORY 1_SCH=D SPACE FUNCTION CORRIDOR/TRANSITION AREA OTHER-SCH-D PEOPLE".
   ** Warning ** GetInternalHeatGains: People Combination of ZoneList and Object Name generate a name too long.
   **   ~~~   ** Object Name="SPACE FUNCTION CORRIDOR/TRANSITION AREA OTHER-SCH-D PEOPLE".
   **   ~~~   ** ZoneList/Zone Name="WILD_ST=CORRIDOR/TRANSITION AREA OTHER-SCH-D_FL=BUILDING STORY 1_SCH=D 1".
   **   ~~~   ** Item length=[130] > Maximum Length=[100]. You may need to shorten the names.
   **   ~~~   ** Shortening the Object Name by [31] characters will assure uniqueness for this ZoneList.
   **   ~~~   ** name that will be used (may be needed in reporting)="WILD_ST=CORRIDOR/TRANSITION AREA OTHER-SCH-D_FL=BUILDING STORY 1_SCH=D 1 SPACE FUNCTION CORRIDOR/TRANSITION AREA OTHER-SCH-D PEOPLE".
   ** Warning ** GetInternalHeatGains: People Combination of ZoneList and Object Name generate a name too long.
   **   ~~~   ** Object Name="SPACE FUNCTION CORRIDOR/TRANSITION AREA OTHER-SCH-D PEOPLE".
   **   ~~~   ** ZoneList/Zone Name="WILD_ST=CORRIDOR/TRANSITION AREA OTHER-SCH-D_FL=BUILDING STORY 2_SCH=D".
   **   ~~~   ** Item length=[128] > Maximum Length=[100]. You may need to shorten the names.
   **   ~~~   ** Shortening the Object Name by [31] characters will assure uniqueness for this ZoneList.
   **   ~~~   ** name that will be used (may be needed in reporting)="WILD_ST=CORRIDOR/TRANSITION AREA OTHER-SCH-D_FL=BUILDING STORY 2_SCH=D SPACE FUNCTION CORRIDOR/TRANSITION AREA OTHER-SCH-D PEOPLE".
   ** Warning ** GetInternalHeatGains: People Combination of ZoneList and Object Name generate a name too long.
   **   ~~~   ** Object Name="SPACE FUNCTION CORRIDOR/TRANSITION AREA OTHER-SCH-D PEOPLE".
   **   ~~~   ** ZoneList/Zone Name="WILD_ST=CORRIDOR/TRANSITION AREA OTHER-SCH-D_FL=BUILDING STORY 2_SCH=D 1".
   **   ~~~   ** Item length=[130] > Maximum Length=[100]. You may need to shorten the names.
   **   ~~~   ** Shortening the Object Name by [31] characters will assure uniqueness for this ZoneList.
   **   ~~~   ** name that will be used (may be needed in reporting)="WILD_ST=CORRIDOR/TRANSITION AREA OTHER-SCH-D_FL=BUILDING STORY 2_SCH=D 1 SPACE FUNCTION CORRIDOR/TRANSITION AREA OTHER-SCH-D PEOPLE".
   ** Warning ** GetInternalHeatGains: People Combination of ZoneList and Object Name generate a name too long.
   **   ~~~   ** Object Name="SPACE FUNCTION ELECTRICAL/MECHANICAL ROOM-SCH-D PEOPLE".
   **   ~~~   ** ZoneList/Zone Name="WILD_ST=ELECTRICAL/MECHANICAL ROOM-SCH-D_FL=BUILDING STORY 1_SCH=D".
   **   ~~~   ** Item length=[120] > Maximum Length=[100]. You may need to shorten the names.
   **   ~~~   ** Shortening the Object Name by [21] characters will assure uniqueness for this ZoneList.
   **   ~~~   ** name that will be used (may be needed in reporting)="WILD_ST=ELECTRICAL/MECHANICAL ROOM-SCH-D_FL=BUILDING STORY 1_SCH=D SPACE FUNCTION ELECTRICAL/MECHANICAL ROOM-SCH-D PEOPLE".
   ** Warning ** GetInternalHeatGains: People Combination of ZoneList and Object Name generate a name too long.
   **   ~~~   ** Object Name="SPACE FUNCTION ELECTRICAL/MECHANICAL ROOM-SCH-D PEOPLE".
   **   ~~~   ** ZoneList/Zone Name="WILD_ST=ELECTRICAL/MECHANICAL ROOM-SCH-D_FL=BUILDING STORY 2_SCH=D".
   **   ~~~   ** Item length=[120] > Maximum Length=[100]. You may need to shorten the names.
   **   ~~~   ** Shortening the Object Name by [21] characters will assure uniqueness for this ZoneList.
   **   ~~~   ** name that will be used (may be needed in reporting)="WILD_ST=ELECTRICAL/MECHANICAL ROOM-SCH-D_FL=BUILDING STORY 2_SCH=D SPACE FUNCTION ELECTRICAL/MECHANICAL ROOM-SCH-D PEOPLE".
   ** Warning ** GetInternalHeatGains: People Combination of ZoneList and Object Name generate a name too long.
   **   ~~~   ** Object Name="SPACE FUNCTION GYMNASIUM/FITNESS CENTRE PLAYING AREA PEOPLE".
   **   ~~~   ** ZoneList/Zone Name="ALL_ST=GYMNASIUM/FITNESS CENTRE PLAYING AREA_FL=BUILDING STORY 1_SCH=B".
   **   ~~~   ** Item length=[129] > Maximum Length=[100]. You may need to shorten the names.
   **   ~~~   ** Shortening the Object Name by [32] characters will assure uniqueness for this ZoneList.
   **   ~~~   ** name that will be used (may be needed in reporting)="ALL_ST=GYMNASIUM/FITNESS CENTRE PLAYING AREA_FL=BUILDING STORY 1_SCH=B SPACE FUNCTION GYMNASIUM/FITNESS CENTRE PLAYING AREA PEOPLE".
   ** Warning ** GetInternalHeatGains: People Combination of ZoneList and Object Name generate a name too long.
   **   ~~~   ** Object Name="SPACE FUNCTION GYMNASIUM/FITNESS CENTRE PLAYING AREA PEOPLE".
   **   ~~~   ** ZoneList/Zone Name="ALL_ST=GYMNASIUM/FITNESS CENTRE PLAYING AREA_FL=BUILDING STORY 1_SCH=B 1".
   **   ~~~   ** Item length=[131] > Maximum Length=[100]. You may need to shorten the names.
   **   ~~~   ** Shortening the Object Name by [32] characters will assure uniqueness for this ZoneList.
   **   ~~~   ** name that will be used (may be needed in reporting)="ALL_ST=GYMNASIUM/FITNESS CENTRE PLAYING AREA_FL=BUILDING STORY 1_SCH=B 1 SPACE FUNCTION GYMNASIUM/FITNESS CENTRE PLAYING AREA PEOPLE".
   ** Warning ** GetInternalHeatGains: People Combination of ZoneList and Object Name generate a name too long.
   **   ~~~   ** Object Name="SPACE FUNCTION OFFICE ENCLOSED <= 25 M2 PEOPLE".
   **   ~~~   ** ZoneList/Zone Name="ALL_ST=OFFICE ENCLOSED <= 25 M2_FL=BUILDING STORY 1_SCH=A".
   **   ~~~   ** Item length=[103] > Maximum Length=[100]. You may need to shorten the names.
   **   ~~~   ** Shortening the Object Name by [4] characters will assure uniqueness for this ZoneList.
   **   ~~~   ** name that will be used (may be needed in reporting)="ALL_ST=OFFICE ENCLOSED <= 25 M2_FL=BUILDING STORY 1_SCH=A SPACE FUNCTION OFFICE ENCLOSED <= 25 M2 PEOPLE".
   ** Warning ** GetInternalHeatGains: People Combination of ZoneList and Object Name generate a name too long.
   **   ~~~   ** Object Name="SPACE FUNCTION OFFICE ENCLOSED <= 25 M2 PEOPLE".
   **   ~~~   ** ZoneList/Zone Name="ALL_ST=OFFICE ENCLOSED <= 25 M2_FL=BUILDING STORY 2_SCH=A".
   **   ~~~   ** Item length=[103] > Maximum Length=[100]. You may need to shorten the names.
   **   ~~~   ** Shortening the Object Name by [4] characters will assure uniqueness for this ZoneList.
   **   ~~~   ** name that will be used (may be needed in reporting)="ALL_ST=OFFICE ENCLOSED <= 25 M2_FL=BUILDING STORY 2_SCH=A SPACE FUNCTION OFFICE ENCLOSED <= 25 M2 PEOPLE".
   ** Warning ** GetInternalHeatGains: Lights Combination of ZoneList and Object Name generate a name too long.
   **   ~~~   ** Object Name="SPACE FUNCTION AUDIENCE SEATING AREA PERMANENT - AUDITORIUM LIGHTS 85.0 PERCENT REDUCTION".
   **   ~~~   ** ZoneList/Zone Name="ALL_ST=AUDIENCE SEATING AREA PERMANENT - AUDITORIUM_FL=BUILDING STORY 1_SCH=C".
   **   ~~~   ** Item length=[166] > Maximum Length=[100]. You may need to shorten the names.
   **   ~~~   ** Shortening the Object Name by [67] characters will assure uniqueness for this ZoneList.
   **   ~~~   ** name that will be used (may be needed in reporting)="ALL_ST=AUDIENCE SEATING AREA PERMANENT - AUDITORIUM_FL=BUILDING STORY 1_SCH=C SPACE FUNCTION AUDIENCE SEATING AREA PERMANENT - AUDITORIUM LIGHTS 85.0 PERCENT REDUCTION".
   ** Warning ** GetInternalHeatGains: Lights Combination of ZoneList and Object Name generate a name too long.
   **   ~~~   ** Object Name="SPACE FUNCTION CLASSROOM/LECTURE HALL/TRAINING ROOM OTHER LIGHTS 85.0 PERCENT REDUCTION".
   **   ~~~   ** ZoneList/Zone Name="ALL_ST=CLASSROOM/LECTURE HALL/TRAINING ROOM OTHER_FL=BUILDING STORY 1_SCH=D".
   **   ~~~   ** Item length=[162] > Maximum Length=[100]. You may need to shorten the names.
   **   ~~~   ** Shortening the Object Name by [65] characters will assure uniqueness for this ZoneList.
   **   ~~~   ** name that will be used (may be needed in reporting)="ALL_ST=CLASSROOM/LECTURE HALL/TRAINING ROOM OTHER_FL=BUILDING STORY 1_SCH=D SPACE FUNCTION CLASSROOM/LECTURE HALL/TRAINING ROOM OTHER LIGHTS 85.0 PERCENT REDUCTION".
   ** Warning ** GetInternalHeatGains: Lights Combination of ZoneList and Object Name generate a name too long.
   **   ~~~   ** Object Name="SPACE FUNCTION CLASSROOM/LECTURE HALL/TRAINING ROOM OTHER LIGHTS 85.0 PERCENT REDUCTION".
   **   ~~~   ** ZoneList/Zone Name="ALL_ST=CLASSROOM/LECTURE HALL/TRAINING ROOM OTHER_FL=BUILDING STORY 1_SCH=D 1".
   **   ~~~   ** Item length=[164] > Maximum Length=[100]. You may need to shorten the names.
   **   ~~~   ** Shortening the Object Name by [65] characters will assure uniqueness for this ZoneList.
   **   ~~~   ** name that will be used (may be needed in reporting)="ALL_ST=CLASSROOM/LECTURE HALL/TRAINING ROOM OTHER_FL=BUILDING STORY 1_SCH=D 1 SPACE FUNCTION CLASSROOM/LECTURE HALL/TRAINING ROOM OTHER LIGHTS 85.0 PERCENT REDUCTION".
   ** Warning ** GetInternalHeatGains: Lights Combination of ZoneList and Object Name generate a name too long.
   **   ~~~   ** Object Name="SPACE FUNCTION CLASSROOM/LECTURE HALL/TRAINING ROOM OTHER LIGHTS 85.0 PERCENT REDUCTION".
   **   ~~~   ** ZoneList/Zone Name="ALL_ST=CLASSROOM/LECTURE HALL/TRAINING ROOM OTHER_FL=BUILDING STORY 1_SCH=D 2".
   **   ~~~   ** Item length=[164] > Maximum Length=[100]. You may need to shorten the names.
   **   ~~~   ** Shortening the Object Name by [65] characters will assure uniqueness for this ZoneList.
   **   ~~~   ** name that will be used (may be needed in reporting)="ALL_ST=CLASSROOM/LECTURE HALL/TRAINING ROOM OTHER_FL=BUILDING STORY 1_SCH=D 2 SPACE FUNCTION CLASSROOM/LECTURE HALL/TRAINING ROOM OTHER LIGHTS 85.0 PERCENT REDUCTION".
   ** Warning ** GetInternalHeatGains: Lights Combination of ZoneList and Object Name generate a name too long.
   **   ~~~   ** Object Name="SPACE FUNCTION CLASSROOM/LECTURE HALL/TRAINING ROOM OTHER LIGHTS 85.0 PERCENT REDUCTION".
   **   ~~~   ** ZoneList/Zone Name="ALL_ST=CLASSROOM/LECTURE HALL/TRAINING ROOM OTHER_FL=BUILDING STORY 1_SCH=D 3".
   **   ~~~   ** Item length=[164] > Maximum Length=[100]. You may need to shorten the names.
   **   ~~~   ** Shortening the Object Name by [65] characters will assure uniqueness for this ZoneList.
   **   ~~~   ** name that will be used (may be needed in reporting)="ALL_ST=CLASSROOM/LECTURE HALL/TRAINING ROOM OTHER_FL=BUILDING STORY 1_SCH=D 3 SPACE FUNCTION CLASSROOM/LECTURE HALL/TRAINING ROOM OTHER LIGHTS 85.0 PERCENT REDUCTION".
   ** Warning ** GetInternalHeatGains: Lights Combination of ZoneList and Object Name generate a name too long.
   **   ~~~   ** Object Name="SPACE FUNCTION CLASSROOM/LECTURE HALL/TRAINING ROOM OTHER LIGHTS 85.0 PERCENT REDUCTION".
   **   ~~~   ** ZoneList/Zone Name="ALL_ST=CLASSROOM/LECTURE HALL/TRAINING ROOM OTHER_FL=BUILDING STORY 2_SCH=D".
   **   ~~~   ** Item length=[162] > Maximum Length=[100]. You may need to shorten the names.
   **   ~~~   ** Shortening the Object Name by [65] characters will assure uniqueness for this ZoneList.
   **   ~~~   ** name that will be used (may be needed in reporting)="ALL_ST=CLASSROOM/LECTURE HALL/TRAINING ROOM OTHER_FL=BUILDING STORY 2_SCH=D SPACE FUNCTION CLASSROOM/LECTURE HALL/TRAINING ROOM OTHER LIGHTS 85.0 PERCENT REDUCTION".
   ** Warning ** GetInternalHeatGains: Lights Combination of ZoneList and Object Name generate a name too long.
   **   ~~~   ** Object Name="SPACE FUNCTION CLASSROOM/LECTURE HALL/TRAINING ROOM OTHER LIGHTS 85.0 PERCENT REDUCTION".
   **   ~~~   ** ZoneList/Zone Name="ALL_ST=CLASSROOM/LECTURE HALL/TRAINING ROOM OTHER_FL=BUILDING STORY 2_SCH=D 1".
   **   ~~~   ** Item length=[164] > Maximum Length=[100]. You may need to shorten the names.
   **   ~~~   ** Shortening the Object Name by [65] characters will assure uniqueness for this ZoneList.
   **   ~~~   ** name that will be used (may be needed in reporting)="ALL_ST=CLASSROOM/LECTURE HALL/TRAINING ROOM OTHER_FL=BUILDING STORY 2_SCH=D 1 SPACE FUNCTION CLASSROOM/LECTURE HALL/TRAINING ROOM OTHER LIGHTS 85.0 PERCENT REDUCTION".
   ** Warning ** GetInternalHeatGains: Lights Combination of ZoneList and Object Name generate a name too long.
   **   ~~~   ** Object Name="SPACE FUNCTION CLASSROOM/LECTURE HALL/TRAINING ROOM OTHER LIGHTS 85.0 PERCENT REDUCTION".
   **   ~~~   ** ZoneList/Zone Name="ALL_ST=CLASSROOM/LECTURE HALL/TRAINING ROOM OTHER_FL=BUILDING STORY 2_SCH=D 2".
   **   ~~~   ** Item length=[164] > Maximum Length=[100]. You may need to shorten the names.
   **   ~~~   ** Shortening the Object Name by [65] characters will assure uniqueness for this ZoneList.
   **   ~~~   ** name that will be used (may be needed in reporting)="ALL_ST=CLASSROOM/LECTURE HALL/TRAINING ROOM OTHER_FL=BUILDING STORY 2_SCH=D 2 SPACE FUNCTION CLASSROOM/LECTURE HALL/TRAINING ROOM OTHER LIGHTS 85.0 PERCENT REDUCTION".
   ** Warning ** GetInternalHeatGains: Lights Combination of ZoneList and Object Name generate a name too long.
   **   ~~~   ** Object Name="SPACE FUNCTION CLASSROOM/LECTURE HALL/TRAINING ROOM OTHER LIGHTS 85.0 PERCENT REDUCTION".
   **   ~~~   ** ZoneList/Zone Name="ALL_ST=CLASSROOM/LECTURE HALL/TRAINING ROOM OTHER_FL=BUILDING STORY 2_SCH=D 3".
   **   ~~~   ** Item length=[164] > Maximum Length=[100]. You may need to shorten the names.
   **   ~~~   ** Shortening the Object Name by [65] characters will assure uniqueness for this ZoneList.
   **   ~~~   ** name that will be used (may be needed in reporting)="ALL_ST=CLASSROOM/LECTURE HALL/TRAINING ROOM OTHER_FL=BUILDING STORY 2_SCH=D 3 SPACE FUNCTION CLASSROOM/LECTURE HALL/TRAINING ROOM OTHER LIGHTS 85.0 PERCENT REDUCTION".
   ** Warning ** GetInternalHeatGains: Lights Combination of ZoneList and Object Name generate a name too long.
   **   ~~~   ** Object Name="SPACE FUNCTION CONFERENCE/MEETING/MULTI-PURPOSE ROOM LIGHTS 85.0 PERCENT REDUCTION".
   **   ~~~   ** ZoneList/Zone Name="ALL_ST=CONFERENCE/MEETING/MULTI-PURPOSE ROOM_FL=BUILDING STORY 1_SCH=C".
   **   ~~~   ** Item length=[152] > Maximum Length=[100]. You may need to shorten the names.
   **   ~~~   ** Shortening the Object Name by [53] characters will assure uniqueness for this ZoneList.
   **   ~~~   ** name that will be used (may be needed in reporting)="ALL_ST=CONFERENCE/MEETING/MULTI-PURPOSE ROOM_FL=BUILDING STORY 1_SCH=C SPACE FUNCTION CONFERENCE/MEETING/MULTI-PURPOSE ROOM LIGHTS 85.0 PERCENT REDUCTION".
   ** Warning ** GetInternalHeatGains: Lights Combination of ZoneList and Object Name generate a name too long.
   **   ~~~   ** Object Name="SPACE FUNCTION CORRIDOR/TRANSITION AREA OTHER-SCH-D LIGHTS 85.0 PERCENT REDUCTION".
   **   ~~~   ** ZoneList/Zone Name="WILD_ST=CORRIDOR/TRANSITION AREA OTHER-SCH-D_FL=BUILDING STORY 1_SCH=D".
   **   ~~~   ** Item length=[151] > Maximum Length=[100]. You may need to shorten the names.
   **   ~~~   ** Shortening the Object Name by [54] characters will assure uniqueness for this ZoneList.
   **   ~~~   ** name that will be used (may be needed in reporting)="WILD_ST=CORRIDOR/TRANSITION AREA OTHER-SCH-D_FL=BUILDING STORY 1_SCH=D SPACE FUNCTION CORRIDOR/TRANSITION AREA OTHER-SCH-D LIGHTS 85.0 PERCENT REDUCTION".
   ** Warning ** GetInternalHeatGains: Lights Combination of ZoneList and Object Name generate a name too long.
   **   ~~~   ** Object Name="SPACE FUNCTION CORRIDOR/TRANSITION AREA OTHER-SCH-D LIGHTS 85.0 PERCENT REDUCTION".
   **   ~~~   ** ZoneList/Zone Name="WILD_ST=CORRIDOR/TRANSITION AREA OTHER-SCH-D_FL=BUILDING STORY 1_SCH=D 1".
   **   ~~~   ** Item length=[153] > Maximum Length=[100]. You may need to shorten the names.
   **   ~~~   ** Shortening the Object Name by [54] characters will assure uniqueness for this ZoneList.
   **   ~~~   ** name that will be used (may be needed in reporting)="WILD_ST=CORRIDOR/TRANSITION AREA OTHER-SCH-D_FL=BUILDING STORY 1_SCH=D 1 SPACE FUNCTION CORRIDOR/TRANSITION AREA OTHER-SCH-D LIGHTS 85.0 PERCENT REDUCTION".
   ** Warning ** GetInternalHeatGains: Lights Combination of ZoneList and Object Name generate a name too long.
   **   ~~~   ** Object Name="SPACE FUNCTION CORRIDOR/TRANSITION AREA OTHER-SCH-D LIGHTS 85.0 PERCENT REDUCTION".
   **   ~~~   ** ZoneList/Zone Name="WILD_ST=CORRIDOR/TRANSITION AREA OTHER-SCH-D_FL=BUILDING STORY 2_SCH=D".
   **   ~~~   ** Item length=[151] > Maximum Length=[100]. You may need to shorten the names.
   **   ~~~   ** Shortening the Object Name by [54] characters will assure uniqueness for this ZoneList.
   **   ~~~   ** name that will be used (may be needed in reporting)="WILD_ST=CORRIDOR/TRANSITION AREA OTHER-SCH-D_FL=BUILDING STORY 2_SCH=D SPACE FUNCTION CORRIDOR/TRANSITION AREA OTHER-SCH-D LIGHTS 85.0 PERCENT REDUCTION".
   ** Warning ** GetInternalHeatGains: Lights Combination of ZoneList and Object Name generate a name too long.
   **   ~~~   ** Object Name="SPACE FUNCTION CORRIDOR/TRANSITION AREA OTHER-SCH-D LIGHTS 85.0 PERCENT REDUCTION".
   **   ~~~   ** ZoneList/Zone Name="WILD_ST=CORRIDOR/TRANSITION AREA OTHER-SCH-D_FL=BUILDING STORY 2_SCH=D 1".
   **   ~~~   ** Item length=[153] > Maximum Length=[100]. You may need to shorten the names.
   **   ~~~   ** Shortening the Object Name by [54] characters will assure uniqueness for this ZoneList.
   **   ~~~   ** name that will be used (may be needed in reporting)="WILD_ST=CORRIDOR/TRANSITION AREA OTHER-SCH-D_FL=BUILDING STORY 2_SCH=D 1 SPACE FUNCTION CORRIDOR/TRANSITION AREA OTHER-SCH-D LIGHTS 85.0 PERCENT REDUCTION".
   ** Warning ** GetInternalHeatGains: Lights Combination of ZoneList and Object Name generate a name too long.
   **   ~~~   ** Object Name="SPACE FUNCTION ELECTRICAL/MECHANICAL ROOM-SCH-D LIGHTS 85.0 PERCENT REDUCTION".
   **   ~~~   ** ZoneList/Zone Name="WILD_ST=ELECTRICAL/MECHANICAL ROOM-SCH-D_FL=BUILDING STORY 1_SCH=D".
   **   ~~~   ** Item length=[143] > Maximum Length=[100]. You may need to shorten the names.
   **   ~~~   ** Shortening the Object Name by [44] characters will assure uniqueness for this ZoneList.
   **   ~~~   ** name that will be used (may be needed in reporting)="WILD_ST=ELECTRICAL/MECHANICAL ROOM-SCH-D_FL=BUILDING STORY 1_SCH=D SPACE FUNCTION ELECTRICAL/MECHANICAL ROOM-SCH-D LIGHTS 85.0 PERCENT REDUCTION".
   ** Warning ** GetInternalHeatGains: Lights Combination of ZoneList and Object Name generate a name too long.
   **   ~~~   ** Object Name="SPACE FUNCTION ELECTRICAL/MECHANICAL ROOM-SCH-D LIGHTS 85.0 PERCENT REDUCTION".
   **   ~~~   ** ZoneList/Zone Name="WILD_ST=ELECTRICAL/MECHANICAL ROOM-SCH-D_FL=BUILDING STORY 2_SCH=D".
   **   ~~~   ** Item length=[143] > Maximum Length=[100]. You may need to shorten the names.
   **   ~~~   ** Shortening the Object Name by [44] characters will assure uniqueness for this ZoneList.
   **   ~~~   ** name that will be used (may be needed in reporting)="WILD_ST=ELECTRICAL/MECHANICAL ROOM-SCH-D_FL=BUILDING STORY 2_SCH=D SPACE FUNCTION ELECTRICAL/MECHANICAL ROOM-SCH-D LIGHTS 85.0 PERCENT REDUCTION".
   ** Warning ** GetInternalHeatGains: Lights Combination of ZoneList and Object Name generate a name too long.
   **   ~~~   ** Object Name="SPACE FUNCTION FOOD PREPARATION AREA LIGHTS 85.0 PERCENT REDUCTION".
   **   ~~~   ** ZoneList/Zone Name="ALL_ST=FOOD PREPARATION AREA_FL=BUILDING STORY 1_SCH=B".
   **   ~~~   ** Item length=[120] > Maximum Length=[100]. You may need to shorten the names.
   **   ~~~   ** Shortening the Object Name by [21] characters will assure uniqueness for this ZoneList.
   **   ~~~   ** name that will be used (may be needed in reporting)="ALL_ST=FOOD PREPARATION AREA_FL=BUILDING STORY 1_SCH=B SPACE FUNCTION FOOD PREPARATION AREA LIGHTS 85.0 PERCENT REDUCTION".
   ** Warning ** GetInternalHeatGains: Lights Combination of ZoneList and Object Name generate a name too long.
   **   ~~~   ** Object Name="SPACE FUNCTION GYMNASIUM/FITNESS CENTRE PLAYING AREA LIGHTS 85.0 PERCENT REDUCTION".
   **   ~~~   ** ZoneList/Zone Name="ALL_ST=GYMNASIUM/FITNESS CENTRE PLAYING AREA_FL=BUILDING STORY 1_SCH=B".
   **   ~~~   ** Item length=[152] > Maximum Length=[100]. You may need to shorten the names.
   **   ~~~   ** Shortening the Object Name by [55] characters will assure uniqueness for this ZoneList.
   **   ~~~   ** name that will be used (may be needed in reporting)="ALL_ST=GYMNASIUM/FITNESS CENTRE PLAYING AREA_FL=BUILDING STORY 1_SCH=B SPACE FUNCTION GYMNASIUM/FITNESS CENTRE PLAYING AREA LIGHTS 85.0 PERCENT REDUCTION".
   ** Warning ** GetInternalHeatGains: Lights Combination of ZoneList and Object Name generate a name too long.
   **   ~~~   ** Object Name="SPACE FUNCTION GYMNASIUM/FITNESS CENTRE PLAYING AREA LIGHTS 85.0 PERCENT REDUCTION".
   **   ~~~   ** ZoneList/Zone Name="ALL_ST=GYMNASIUM/FITNESS CENTRE PLAYING AREA_FL=BUILDING STORY 1_SCH=B 1".
   **   ~~~   ** Item length=[154] > Maximum Length=[100]. You may need to shorten the names.
   **   ~~~   ** Shortening the Object Name by [55] characters will assure uniqueness for this ZoneList.
   **   ~~~   ** name that will be used (may be needed in reporting)="ALL_ST=GYMNASIUM/FITNESS CENTRE PLAYING AREA_FL=BUILDING STORY 1_SCH=B 1 SPACE FUNCTION GYMNASIUM/FITNESS CENTRE PLAYING AREA LIGHTS 85.0 PERCENT REDUCTION".
   ** Warning ** GetInternalHeatGains: Lights Combination of ZoneList and Object Name generate a name too long.
   **   ~~~   ** Object Name="SPACE FUNCTION LIBRARY READING AREA LIGHTS 85.0 PERCENT REDUCTION".
   **   ~~~   ** ZoneList/Zone Name="ALL_ST=LIBRARY READING AREA_FL=BUILDING STORY 2_SCH=C".
   **   ~~~   ** Item length=[118] > Maximum Length=[100]. You may need to shorten the names.
   **   ~~~   ** Shortening the Object Name by [19] characters will assure uniqueness for this ZoneList.
   **   ~~~   ** name that will be used (may be needed in reporting)="ALL_ST=LIBRARY READING AREA_FL=BUILDING STORY 2_SCH=C SPACE FUNCTION LIBRARY READING AREA LIGHTS 85.0 PERCENT REDUCTION".
   ** Warning ** GetInternalHeatGains: Lights Combination of ZoneList and Object Name generate a name too long.
   **   ~~~   ** Object Name="SPACE FUNCTION LOBBY - OTHER LIGHTS 85.0 PERCENT REDUCTION".
   **   ~~~   ** ZoneList/Zone Name="ALL_ST=LOBBY - OTHER_FL=BUILDING STORY 1_SCH=C".
   **   ~~~   ** Item length=[104] > Maximum Length=[100]. You may need to shorten the names.
   **   ~~~   ** Shortening the Object Name by [5] characters will assure uniqueness for this ZoneList.
   **   ~~~   ** name that will be used (may be needed in reporting)="ALL_ST=LOBBY - OTHER_FL=BUILDING STORY 1_SCH=C SPACE FUNCTION LOBBY - OTHER LIGHTS 85.0 PERCENT REDUCTION".
   ** Warning ** GetInternalHeatGains: Lights Combination of ZoneList and Object Name generate a name too long.
   **   ~~~   ** Object Name="SPACE FUNCTION LOBBY - OTHER LIGHTS 85.0 PERCENT REDUCTION".
   **   ~~~   ** ZoneList/Zone Name="ALL_ST=LOBBY - OTHER_FL=BUILDING STORY 2_SCH=C".
   **   ~~~   ** Item length=[104] > Maximum Length=[100]. You may need to shorten the names.
   **   ~~~   ** Shortening the Object Name by [5] characters will assure uniqueness for this ZoneList.
   **   ~~~   ** name that will be used (may be needed in reporting)="ALL_ST=LOBBY - OTHER_FL=BUILDING STORY 2_SCH=C SPACE FUNCTION LOBBY - OTHER LIGHTS 85.0 PERCENT REDUCTION".
   ** Warning ** GetInternalHeatGains: Lights Combination of ZoneList and Object Name generate a name too long.
   **   ~~~   ** Object Name="SPACE FUNCTION OFFICE ENCLOSED <= 25 M2 LIGHTS 85.0 PERCENT REDUCTION".
   **   ~~~   ** ZoneList/Zone Name="ALL_ST=OFFICE ENCLOSED <= 25 M2_FL=BUILDING STORY 1_SCH=A".
   **   ~~~   ** Item length=[126] > Maximum Length=[100]. You may need to shorten the names.
   **   ~~~   ** Shortening the Object Name by [27] characters will assure uniqueness for this ZoneList.
   **   ~~~   ** name that will be used (may be needed in reporting)="ALL_ST=OFFICE ENCLOSED <= 25 M2_FL=BUILDING STORY 1_SCH=A SPACE FUNCTION OFFICE ENCLOSED <= 25 M2 LIGHTS 85.0 PERCENT REDUCTION".
   ** Warning ** GetInternalHeatGains: Lights Combination of ZoneList and Object Name generate a name too long.
   **   ~~~   ** Object Name="SPACE FUNCTION OFFICE ENCLOSED <= 25 M2 LIGHTS 85.0 PERCENT REDUCTION".
   **   ~~~   ** ZoneList/Zone Name="ALL_ST=OFFICE ENCLOSED <= 25 M2_FL=BUILDING STORY 2_SCH=A".
   **   ~~~   ** Item length=[126] > Maximum Length=[100]. You may need to shorten the names.
   **   ~~~   ** Shortening the Object Name by [27] characters will assure uniqueness for this ZoneList.
   **   ~~~   ** name that will be used (may be needed in reporting)="ALL_ST=OFFICE ENCLOSED <= 25 M2_FL=BUILDING STORY 2_SCH=A SPACE FUNCTION OFFICE ENCLOSED <= 25 M2 LIGHTS 85.0 PERCENT REDUCTION".
   ** Warning ** GetInternalHeatGains: Lights Combination of ZoneList and Object Name generate a name too long.
   **   ~~~   ** Object Name="SPACE FUNCTION WASHROOM - OTHER-SCH-D LIGHTS 85.0 PERCENT REDUCTION".
   **   ~~~   ** ZoneList/Zone Name="WET_ST=WASHROOM - OTHER-SCH-D_FL=BUILDING STORY 1_SCHD".
   **   ~~~   ** Item length=[121] > Maximum Length=[100]. You may need to shorten the names.
   **   ~~~   ** Shortening the Object Name by [22] characters will assure uniqueness for this ZoneList.
   **   ~~~   ** name that will be used (may be needed in reporting)="WET_ST=WASHROOM - OTHER-SCH-D_FL=BUILDING STORY 1_SCHD SPACE FUNCTION WASHROOM - OTHER-SCH-D LIGHTS 85.0 PERCENT REDUCTION".
   ** Warning ** GetInternalHeatGains: Lights Combination of ZoneList and Object Name generate a name too long.
   **   ~~~   ** Object Name="SPACE FUNCTION WASHROOM - OTHER-SCH-D LIGHTS 85.0 PERCENT REDUCTION".
   **   ~~~   ** ZoneList/Zone Name="WET_ST=WASHROOM - OTHER-SCH-D_FL=BUILDING STORY 2_SCHD".
   **   ~~~   ** Item length=[121] > Maximum Length=[100]. You may need to shorten the names.
   **   ~~~   ** Shortening the Object Name by [22] characters will assure uniqueness for this ZoneList.
   **   ~~~   ** name that will be used (may be needed in reporting)="WET_ST=WASHROOM - OTHER-SCH-D_FL=BUILDING STORY 2_SCHD SPACE FUNCTION WASHROOM - OTHER-SCH-D LIGHTS 85.0 PERCENT REDUCTION".
   ** Warning ** GetInternalHeatGains: ElectricEquipment Combination of ZoneList and Object Name generate a name too long.
   **   ~~~   ** Object Name="SPACE FUNCTION AUDIENCE SEATING AREA PERMANENT - AUDITORIUM ELEC EQUIP 50.0 PERCENT REDUCTION".
   **   ~~~   ** ZoneList/Zone Name="ALL_ST=AUDIENCE SEATING AREA PERMANENT - AUDITORIUM_FL=BUILDING STORY 1_SCH=C".
   **   ~~~   ** Item length=[170] > Maximum Length=[100]. You may need to shorten the names.
   **   ~~~   ** Shortening the Object Name by [71] characters will assure uniqueness for this ZoneList.
   **   ~~~   ** name that will be used (may be needed in reporting)="ALL_ST=AUDIENCE SEATING AREA PERMANENT - AUDITORIUM_FL=BUILDING STORY 1_SCH=C SPACE FUNCTION AUDIENCE SEATING AREA PERMANENT - AUDITORIUM ELEC EQUIP 50.0 PERCENT REDUCTION".
   ** Warning ** GetInternalHeatGains: ElectricEquipment Combination of ZoneList and Object Name generate a name too long.
   **   ~~~   ** Object Name="SPACE FUNCTION CLASSROOM/LECTURE HALL/TRAINING ROOM OTHER ELEC EQUIP 50.0 PERCENT REDUCTION".
   **   ~~~   ** ZoneList/Zone Name="ALL_ST=CLASSROOM/LECTURE HALL/TRAINING ROOM OTHER_FL=BUILDING STORY 1_SCH=D".
   **   ~~~   ** Item length=[166] > Maximum Length=[100]. You may need to shorten the names.
   **   ~~~   ** Shortening the Object Name by [69] characters will assure uniqueness for this ZoneList.
   **   ~~~   ** name that will be used (may be needed in reporting)="ALL_ST=CLASSROOM/LECTURE HALL/TRAINING ROOM OTHER_FL=BUILDING STORY 1_SCH=D SPACE FUNCTION CLASSROOM/LECTURE HALL/TRAINING ROOM OTHER ELEC EQUIP 50.0 PERCENT REDUCTION".
   ** Warning ** GetInternalHeatGains: ElectricEquipment Combination of ZoneList and Object Name generate a name too long.
   **   ~~~   ** Object Name="SPACE FUNCTION CLASSROOM/LECTURE HALL/TRAINING ROOM OTHER ELEC EQUIP 50.0 PERCENT REDUCTION".
   **   ~~~   ** ZoneList/Zone Name="ALL_ST=CLASSROOM/LECTURE HALL/TRAINING ROOM OTHER_FL=BUILDING STORY 1_SCH=D 1".
   **   ~~~   ** Item length=[168] > Maximum Length=[100]. You may need to shorten the names.
   **   ~~~   ** Shortening the Object Name by [69] characters will assure uniqueness for this ZoneList.
   **   ~~~   ** name that will be used (may be needed in reporting)="ALL_ST=CLASSROOM/LECTURE HALL/TRAINING ROOM OTHER_FL=BUILDING STORY 1_SCH=D 1 SPACE FUNCTION CLASSROOM/LECTURE HALL/TRAINING ROOM OTHER ELEC EQUIP 50.0 PERCENT REDUCTION".
   ** Warning ** GetInternalHeatGains: ElectricEquipment Combination of ZoneList and Object Name generate a name too long.
   **   ~~~   ** Object Name="SPACE FUNCTION CLASSROOM/LECTURE HALL/TRAINING ROOM OTHER ELEC EQUIP 50.0 PERCENT REDUCTION".
   **   ~~~   ** ZoneList/Zone Name="ALL_ST=CLASSROOM/LECTURE HALL/TRAINING ROOM OTHER_FL=BUILDING STORY 1_SCH=D 2".
   **   ~~~   ** Item length=[168] > Maximum Length=[100]. You may need to shorten the names.
   **   ~~~   ** Shortening the Object Name by [69] characters will assure uniqueness for this ZoneList.
   **   ~~~   ** name that will be used (may be needed in reporting)="ALL_ST=CLASSROOM/LECTURE HALL/TRAINING ROOM OTHER_FL=BUILDING STORY 1_SCH=D 2 SPACE FUNCTION CLASSROOM/LECTURE HALL/TRAINING ROOM OTHER ELEC EQUIP 50.0 PERCENT REDUCTION".
   ** Warning ** GetInternalHeatGains: ElectricEquipment Combination of ZoneList and Object Name generate a name too long.
   **   ~~~   ** Object Name="SPACE FUNCTION CLASSROOM/LECTURE HALL/TRAINING ROOM OTHER ELEC EQUIP 50.0 PERCENT REDUCTION".
   **   ~~~   ** ZoneList/Zone Name="ALL_ST=CLASSROOM/LECTURE HALL/TRAINING ROOM OTHER_FL=BUILDING STORY 1_SCH=D 3".
   **   ~~~   ** Item length=[168] > Maximum Length=[100]. You may need to shorten the names.
   **   ~~~   ** Shortening the Object Name by [69] characters will assure uniqueness for this ZoneList.
   **   ~~~   ** name that will be used (may be needed in reporting)="ALL_ST=CLASSROOM/LECTURE HALL/TRAINING ROOM OTHER_FL=BUILDING STORY 1_SCH=D 3 SPACE FUNCTION CLASSROOM/LECTURE HALL/TRAINING ROOM OTHER ELEC EQUIP 50.0 PERCENT REDUCTION".
   ** Warning ** GetInternalHeatGains: ElectricEquipment Combination of ZoneList and Object Name generate a name too long.
   **   ~~~   ** Object Name="SPACE FUNCTION CLASSROOM/LECTURE HALL/TRAINING ROOM OTHER ELEC EQUIP 50.0 PERCENT REDUCTION".
   **   ~~~   ** ZoneList/Zone Name="ALL_ST=CLASSROOM/LECTURE HALL/TRAINING ROOM OTHER_FL=BUILDING STORY 2_SCH=D".
   **   ~~~   ** Item length=[166] > Maximum Length=[100]. You may need to shorten the names.
   **   ~~~   ** Shortening the Object Name by [69] characters will assure uniqueness for this ZoneList.
   **   ~~~   ** name that will be used (may be needed in reporting)="ALL_ST=CLASSROOM/LECTURE HALL/TRAINING ROOM OTHER_FL=BUILDING STORY 2_SCH=D SPACE FUNCTION CLASSROOM/LECTURE HALL/TRAINING ROOM OTHER ELEC EQUIP 50.0 PERCENT REDUCTION".
   ** Warning ** GetInternalHeatGains: ElectricEquipment Combination of ZoneList and Object Name generate a name too long.
   **   ~~~   ** Object Name="SPACE FUNCTION CLASSROOM/LECTURE HALL/TRAINING ROOM OTHER ELEC EQUIP 50.0 PERCENT REDUCTION".
   **   ~~~   ** ZoneList/Zone Name="ALL_ST=CLASSROOM/LECTURE HALL/TRAINING ROOM OTHER_FL=BUILDING STORY 2_SCH=D 1".
   **   ~~~   ** Item length=[168] > Maximum Length=[100]. You may need to shorten the names.
   **   ~~~   ** Shortening the Object Name by [69] characters will assure uniqueness for this ZoneList.
   **   ~~~   ** name that will be used (may be needed in reporting)="ALL_ST=CLASSROOM/LECTURE HALL/TRAINING ROOM OTHER_FL=BUILDING STORY 2_SCH=D 1 SPACE FUNCTION CLASSROOM/LECTURE HALL/TRAINING ROOM OTHER ELEC EQUIP 50.0 PERCENT REDUCTION".
   ** Warning ** GetInternalHeatGains: ElectricEquipment Combination of ZoneList and Object Name generate a name too long.
   **   ~~~   ** Object Name="SPACE FUNCTION CLASSROOM/LECTURE HALL/TRAINING ROOM OTHER ELEC EQUIP 50.0 PERCENT REDUCTION".
   **   ~~~   ** ZoneList/Zone Name="ALL_ST=CLASSROOM/LECTURE HALL/TRAINING ROOM OTHER_FL=BUILDING STORY 2_SCH=D 2".
   **   ~~~   ** Item length=[168] > Maximum Length=[100]. You may need to shorten the names.
   **   ~~~   ** Shortening the Object Name by [69] characters will assure uniqueness for this ZoneList.
   **   ~~~   ** name that will be used (may be needed in reporting)="ALL_ST=CLASSROOM/LECTURE HALL/TRAINING ROOM OTHER_FL=BUILDING STORY 2_SCH=D 2 SPACE FUNCTION CLASSROOM/LECTURE HALL/TRAINING ROOM OTHER ELEC EQUIP 50.0 PERCENT REDUCTION".
   ** Warning ** GetInternalHeatGains: ElectricEquipment Combination of ZoneList and Object Name generate a name too long.
   **   ~~~   ** Object Name="SPACE FUNCTION CLASSROOM/LECTURE HALL/TRAINING ROOM OTHER ELEC EQUIP 50.0 PERCENT REDUCTION".
   **   ~~~   ** ZoneList/Zone Name="ALL_ST=CLASSROOM/LECTURE HALL/TRAINING ROOM OTHER_FL=BUILDING STORY 2_SCH=D 3".
   **   ~~~   ** Item length=[168] > Maximum Length=[100]. You may need to shorten the names.
   **   ~~~   ** Shortening the Object Name by [69] characters will assure uniqueness for this ZoneList.
   **   ~~~   ** name that will be used (may be needed in reporting)="ALL_ST=CLASSROOM/LECTURE HALL/TRAINING ROOM OTHER_FL=BUILDING STORY 2_SCH=D 3 SPACE FUNCTION CLASSROOM/LECTURE HALL/TRAINING ROOM OTHER ELEC EQUIP 50.0 PERCENT REDUCTION".
   ** Warning ** GetInternalHeatGains: ElectricEquipment Combination of ZoneList and Object Name generate a name too long.
   **   ~~~   ** Object Name="SPACE FUNCTION CONFERENCE/MEETING/MULTI-PURPOSE ROOM ELEC EQUIP 50.0 PERCENT REDUCTION".
   **   ~~~   ** ZoneList/Zone Name="ALL_ST=CONFERENCE/MEETING/MULTI-PURPOSE ROOM_FL=BUILDING STORY 1_SCH=C".
   **   ~~~   ** Item length=[156] > Maximum Length=[100]. You may need to shorten the names.
   **   ~~~   ** Shortening the Object Name by [57] characters will assure uniqueness for this ZoneList.
   **   ~~~   ** name that will be used (may be needed in reporting)="ALL_ST=CONFERENCE/MEETING/MULTI-PURPOSE ROOM_FL=BUILDING STORY 1_SCH=C SPACE FUNCTION CONFERENCE/MEETING/MULTI-PURPOSE ROOM ELEC EQUIP 50.0 PERCENT REDUCTION".
   ** Warning ** GetInternalHeatGains: ElectricEquipment Combination of ZoneList and Object Name generate a name too long.
   **   ~~~   ** Object Name="SPACE FUNCTION ELECTRICAL/MECHANICAL ROOM-SCH-D ELEC EQUIP 50.0 PERCENT REDUCTION".
   **   ~~~   ** ZoneList/Zone Name="WILD_ST=ELECTRICAL/MECHANICAL ROOM-SCH-D_FL=BUILDING STORY 1_SCH=D".
   **   ~~~   ** Item length=[147] > Maximum Length=[100]. You may need to shorten the names.
   **   ~~~   ** Shortening the Object Name by [48] characters will assure uniqueness for this ZoneList.
   **   ~~~   ** name that will be used (may be needed in reporting)="WILD_ST=ELECTRICAL/MECHANICAL ROOM-SCH-D_FL=BUILDING STORY 1_SCH=D SPACE FUNCTION ELECTRICAL/MECHANICAL ROOM-SCH-D ELEC EQUIP 50.0 PERCENT REDUCTION".
   ** Warning ** GetInternalHeatGains: ElectricEquipment Combination of ZoneList and Object Name generate a name too long.
   **   ~~~   ** Object Name="SPACE FUNCTION ELECTRICAL/MECHANICAL ROOM-SCH-D ELEC EQUIP 50.0 PERCENT REDUCTION".
   **   ~~~   ** ZoneList/Zone Name="WILD_ST=ELECTRICAL/MECHANICAL ROOM-SCH-D_FL=BUILDING STORY 2_SCH=D".
   **   ~~~   ** Item length=[147] > Maximum Length=[100]. You may need to shorten the names.
   **   ~~~   ** Shortening the Object Name by [48] characters will assure uniqueness for this ZoneList.
   **   ~~~   ** name that will be used (may be needed in reporting)="WILD_ST=ELECTRICAL/MECHANICAL ROOM-SCH-D_FL=BUILDING STORY 2_SCH=D SPACE FUNCTION ELECTRICAL/MECHANICAL ROOM-SCH-D ELEC EQUIP 50.0 PERCENT REDUCTION".
   ** Warning ** GetInternalHeatGains: ElectricEquipment Combination of ZoneList and Object Name generate a name too long.
   **   ~~~   ** Object Name="SPACE FUNCTION FOOD PREPARATION AREA ELEC EQUIP 50.0 PERCENT REDUCTION".
   **   ~~~   ** ZoneList/Zone Name="ALL_ST=FOOD PREPARATION AREA_FL=BUILDING STORY 1_SCH=B".
   **   ~~~   ** Item length=[124] > Maximum Length=[100]. You may need to shorten the names.
   **   ~~~   ** Shortening the Object Name by [25] characters will assure uniqueness for this ZoneList.
   **   ~~~   ** name that will be used (may be needed in reporting)="ALL_ST=FOOD PREPARATION AREA_FL=BUILDING STORY 1_SCH=B SPACE FUNCTION FOOD PREPARATION AREA ELEC EQUIP 50.0 PERCENT REDUCTION".
   ** Warning ** GetInternalHeatGains: ElectricEquipment Combination of ZoneList and Object Name generate a name too long.
   **   ~~~   ** Object Name="SPACE FUNCTION GYMNASIUM/FITNESS CENTRE PLAYING AREA ELEC EQUIP 50.0 PERCENT REDUCTION".
   **   ~~~   ** ZoneList/Zone Name="ALL_ST=GYMNASIUM/FITNESS CENTRE PLAYING AREA_FL=BUILDING STORY 1_SCH=B".
   **   ~~~   ** Item length=[156] > Maximum Length=[100]. You may need to shorten the names.
   **   ~~~   ** Shortening the Object Name by [59] characters will assure uniqueness for this ZoneList.
   **   ~~~   ** name that will be used (may be needed in reporting)="ALL_ST=GYMNASIUM/FITNESS CENTRE PLAYING AREA_FL=BUILDING STORY 1_SCH=B SPACE FUNCTION GYMNASIUM/FITNESS CENTRE PLAYING AREA ELEC EQUIP 50.0 PERCENT REDUCTION".
   ** Warning ** GetInternalHeatGains: ElectricEquipment Combination of ZoneList and Object Name generate a name too long.
   **   ~~~   ** Object Name="SPACE FUNCTION GYMNASIUM/FITNESS CENTRE PLAYING AREA ELEC EQUIP 50.0 PERCENT REDUCTION".
   **   ~~~   ** ZoneList/Zone Name="ALL_ST=GYMNASIUM/FITNESS CENTRE PLAYING AREA_FL=BUILDING STORY 1_SCH=B 1".
   **   ~~~   ** Item length=[158] > Maximum Length=[100]. You may need to shorten the names.
   **   ~~~   ** Shortening the Object Name by [59] characters will assure uniqueness for this ZoneList.
   **   ~~~   ** name that will be used (may be needed in reporting)="ALL_ST=GYMNASIUM/FITNESS CENTRE PLAYING AREA_FL=BUILDING STORY 1_SCH=B 1 SPACE FUNCTION GYMNASIUM/FITNESS CENTRE PLAYING AREA ELEC EQUIP 50.0 PERCENT REDUCTION".
   ** Warning ** GetInternalHeatGains: ElectricEquipment Combination of ZoneList and Object Name generate a name too long.
[...]
   *************  **   ~~~   **   This error occurred 7165 total times;
   *************  **   ~~~   **   during Warmup 0 times;
   *************  **   ~~~   **   during Sizing 0 times.
   *************  **   ~~~   **   Max=1.998153  Min=-416.61839
   *************
   *************  ** Warning ** CalcDoe2DXCoil: Coil:Cooling:DX:SingleSpeed="COIL COOLING DX SINGLE SPEED 10 345KBTU/HR 8.39EER" - Low condenser dry-bulb temperature error continues...
   *************  **   ~~~   **   This error occurred 4861 total times;
   *************  **   ~~~   **   during Warmup 0 times;
   *************  **   ~~~   **   during Sizing 0 times.
   *************  **   ~~~   **   Max=-2.500000E-002 [C]  Min=-24.275 [C]
   *************
   *************  ** Warning ** CalcDoe2DXCoil: Coil:Cooling:DX:SingleSpeed="COIL COOLING DX SINGLE SPEED 10 345KBTU/HR 8.39EER" - Air volume flow rate per watt of rated total cooling capacity is out of range error continues...
   *************  **   ~~~   **   This error occurred 290236 total times;
   *************  **   ~~~   **   during Warmup 0 times;
   *************  **   ~~~   **   during Sizing 0 times.
   *************  **   ~~~   **   Max=2.683983E-005  Min=2.005540E-006
   *************
   *************  ** Warning ** CalcDoe2DXCoil: Coil:Cooling:DX:SingleSpeed="COIL COOLING DX SINGLE SPEED 10 345KBTU/HR 8.39EER" - Full load outlet temperature indicates a possibility of frost/freeze error continues. Outlet air temperature statistics follow:
   *************  **   ~~~   **   This error occurred 8176 total times;
   *************  **   ~~~   **   during Warmup 0 times;
   *************  **   ~~~   **   during Sizing 0 times.
   *************  **   ~~~   **   Max=1.99888  Min=-431.626048
   *************
   *************  ** Warning ** CalcDoe2DXCoil: Coil:Cooling:DX:SingleSpeed="COIL COOLING DX SINGLE SPEED 5 122KBTU/HR 9.44EER" - Air volume flow rate per watt of rated total cooling capacity is out of range error continues...
   *************  **   ~~~   **   This error occurred 248686 total times;
   *************  **   ~~~   **   during Warmup 0 times;
   *************  **   ~~~   **   during Sizing 0 times.
   *************  **   ~~~   **   Max=2.683974E-005  Min=2.003340E-006
   *************
   *************  ** Warning ** CalcDoe2DXCoil: Coil:Cooling:DX:SingleSpeed="COIL COOLING DX SINGLE SPEED 5 122KBTU/HR 9.44EER" - Low condenser dry-bulb temperature error continues...
   *************  **   ~~~   **   This error occurred 4412 total times;
   *************  **   ~~~   **   during Warmup 0 times;
   *************  **   ~~~   **   during Sizing 0 times.
   *************  **   ~~~   **   Max=-2.500000E-002 [C]  Min=-19.6 [C]
   *************
   *************  ** Warning ** CalcDoe2DXCoil: Coil:Cooling:DX:SingleSpeed="COIL COOLING DX SINGLE SPEED 5 122KBTU/HR 9.44EER" - Full load outlet temperature indicates a possibility of frost/freeze error continues. Outlet air temperature statistics follow:
   *************  **   ~~~   **   This error occurred 6994 total times;
   *************  **   ~~~   **   during Warmup 0 times;
   *************  **   ~~~   **   during Sizing 0 times.
   *************  **   ~~~   **   Max=1.997374  Min=-434.349593
   *************
   *************  ** Warning ** CalcDoe2DXCoil: Coil:Cooling:DX:SingleSpeed="COIL COOLING DX SINGLE SPEED 14 81KBTU/HR 9.44EER" - Low condenser dry-bulb temperature error continues...
   *************  **   ~~~   **   This error occurred 6651 total times;
   *************  **   ~~~   **   during Warmup 0 times;
   *************  **   ~~~   **   during Sizing 0 times.
   *************  **   ~~~   **   Max=-2.500000E-002 [C]  Min=-21.8 [C]
   *************
   *************  ** Warning ** CalcDoe2DXCoil: Coil:Cooling:DX:SingleSpeed="COIL COOLING DX SINGLE SPEED 14 81KBTU/HR 9.44EER" - Air volume flow rate per watt of rated total cooling capacity is out of range error continues...
   *************  **   ~~~   **   This error occurred 55858 total times;
   *************  **   ~~~   **   during Warmup 0 times;
   *************  **   ~~~   **   during Sizing 0 times.
   *************  **   ~~~   **   Max=2.683974E-005  Min=2.329784E-006
   *************
   *************  ** Warning ** CalcDoe2DXCoil: Coil:Cooling:DX:SingleSpeed="COIL COOLING DX SINGLE SPEED 14 81KBTU/HR 9.44EER" - Full load outlet temperature indicates a possibility of frost/freeze error continues. Outlet air temperature statistics follow:
   *************  **   ~~~   **   This error occurred 1520 total times;
   *************  **   ~~~   **   during Warmup 0 times;
   *************  **   ~~~   **   during Sizing 0 times.
   *************  **   ~~~   **   Max=1.999764  Min=-371.531154
   *************
   *************  ** Warning ** CalcDoe2DXCoil: Coil:Cooling:DX:SingleSpeed="COIL COOLING DX SINGLE SPEED 18 43KBTU/HR 14.0SEER" - Air volume flow rate per watt of rated total cooling capacity is out of range error continues...
   *************  **   ~~~   **   This error occurred 361466 total times;
   *************  **   ~~~   **   during Warmup 0 times;
   *************  **   ~~~   **   during Sizing 0 times.
   *************  **   ~~~   **   Max=2.683962E-005  Min=2.010585E-006
   *************
   *************  ** Warning ** CalcDoe2DXCoil: Coil:Cooling:DX:SingleSpeed="COIL COOLING DX SINGLE SPEED 18 43KBTU/HR 14.0SEER" - Low condenser dry-bulb temperature error continues...
   *************  **   ~~~   **   This error occurred 7334 total times;
   *************  **   ~~~   **   during Warmup 0 times;
   *************  **   ~~~   **   during Sizing 0 times.
   *************  **   ~~~   **   Max=-2.500000E-002 [C]  Min=-24.825 [C]
   *************
   *************  ** Warning ** CalcDoe2DXCoil: Coil:Cooling:DX:SingleSpeed="COIL COOLING DX SINGLE SPEED 18 43KBTU/HR 14.0SEER" - Full load outlet temperature indicates a possibility of frost/freeze error continues. Outlet air temperature statistics follow:
   *************  **   ~~~   **   This error occurred 12664 total times;
   *************  **   ~~~   **   during Warmup 0 times;
   *************  **   ~~~   **   during Sizing 0 times.
   *************  **   ~~~   **   Max=1.998991  Min=-414.234165
   *************
   *************  ** Warning ** CalcDoe2DXCoil: Coil:Cooling:DX:SingleSpeed="COIL COOLING DX SINGLE SPEED 8 387KBTU/HR 8.39EER" - Low condenser dry-bulb temperature error continues...
   *************  **   ~~~   **   This error occurred 2331 total times;
   *************  **   ~~~   **   during Warmup 0 times;
   *************  **   ~~~   **   during Sizing 0 times.
   *************  **   ~~~   **   Max=-2.500000E-002 [C]  Min=-19. [C]
   *************
   *************  ** Warning ** CalcDoe2DXCoil: Coil:Cooling:DX:SingleSpeed="COIL COOLING DX SINGLE SPEED 8 387KBTU/HR 8.39EER" - Air volume flow rate per watt of rated total cooling capacity is out of range error continues...
   *************  **   ~~~   **   This error occurred 241826 total times;
   *************  **   ~~~   **   during Warmup 0 times;
   *************  **   ~~~   **   during Sizing 0 times.
   *************  **   ~~~   **   Max=2.683776E-005  Min=2.008195E-006
   *************
   *************  ** Warning ** CalcDoe2DXCoil: Coil:Cooling:DX:SingleSpeed="COIL COOLING DX SINGLE SPEED 8 387KBTU/HR 8.39EER" - Full load outlet temperature indicates a possibility of frost/freeze error continues. Outlet air temperature statistics follow:
   *************  **   ~~~   **   This error occurred 5603 total times;
   *************  **   ~~~   **   during Warmup 0 times;
   *************  **   ~~~   **   during Sizing 0 times.
   *************  **   ~~~   **   Max=1.992626  Min=-418.806741
   *************
   *************  ** Warning ** CalcDoe2DXCoil: Coil:Cooling:DX:SingleSpeed="COIL COOLING DX SINGLE SPEED 12 344KBTU/HR 8.39EER" - Low condenser dry-bulb temperature error continues...
   *************  **   ~~~   **   This error occurred 1932 total times;
   *************  **   ~~~   **   during Warmup 0 times;
   *************  **   ~~~   **   during Sizing 0 times.
   *************  **   ~~~   **   Max=-2.500000E-002 [C]  Min=-22.8 [C]
   *************
   *************  ** Warning ** CalcDoe2DXCoil: Coil:Cooling:DX:SingleSpeed="COIL COOLING DX SINGLE SPEED 12 344KBTU/HR 8.39EER" - Air volume flow rate per watt of rated total cooling capacity is out of range error continues...
   *************  **   ~~~   **   This error occurred 279370 total times;
   *************  **   ~~~   **   during Warmup 0 times;
   *************  **   ~~~   **   during Sizing 0 times.
   *************  **   ~~~   **   Max=2.683992E-005  Min=1.998712E-006
   *************
   *************  ** Warning ** CalcDoe2DXCoil: Coil:Cooling:DX:SingleSpeed="COIL COOLING DX SINGLE SPEED 12 344KBTU/HR 8.39EER" - Full load outlet temperature indicates a possibility of frost/freeze error continues. Outlet air temperature statistics follow:
   *************  **   ~~~   **   This error occurred 5963 total times;
   *************  **   ~~~   **   during Warmup 0 times;
   *************  **   ~~~   **   during Sizing 0 times.
   *************  **   ~~~   **   Max=1.980775  Min=-402.839168
   *************
   *************  ** Warning ** CalcDoe2DXCoil: Coil:Cooling:DX:SingleSpeed="COIL COOLING DX SINGLE SPEED 6 136KBTU/HR 9.44EER" - Low condenser dry-bulb temperature error continues...
   *************  **   ~~~   **   This error occurred 2343 total times;
   *************  **   ~~~   **   during Warmup 0 times;
   *************  **   ~~~   **   during Sizing 0 times.
   *************  **   ~~~   **   Max=-2.500000E-002 [C]  Min=-18.8 [C]
   *************
   *************  ** Warning ** CalcDoe2DXCoil: Coil:Cooling:DX:SingleSpeed="COIL COOLING DX SINGLE SPEED 6 136KBTU/HR 9.44EER" - Air volume flow rate per watt of rated total cooling capacity is out of range error continues...
   *************  **   ~~~   **   This error occurred 213986 total times;
   *************  **   ~~~   **   during Warmup 0 times;
   *************  **   ~~~   **   during Sizing 0 times.
   *************  **   ~~~   **   Max=2.683977E-005  Min=2.008910E-006
   *************
   *************  ** Warning ** CalcDoe2DXCoil: Coil:Cooling:DX:SingleSpeed="COIL COOLING DX SINGLE SPEED 6 136KBTU/HR 9.44EER" - Full load outlet temperature indicates a possibility of frost/freeze error continues. Outlet air temperature statistics follow:
   *************  **   ~~~   **   This error occurred 5220 total times;
   *************  **   ~~~   **   during Warmup 0 times;
   *************  **   ~~~   **   during Sizing 0 times.
   *************  **   ~~~   **   Max=1.994515  Min=-418.536368
   *************
   *************  ** Warning ** CalcDoe2DXCoil: Coil:Cooling:DX:SingleSpeed="COIL COOLING DX SINGLE SPEED 13 145KBTU/HR 9.26EER" - Low condenser dry-bulb temperature error continues...
   *************  **   ~~~   **   This error occurred 2781 total times;
   *************  **   ~~~   **   during Warmup 0 times;
   *************  **   ~~~   **   during Sizing 0 times.
   *************  **   ~~~   **   Max=-2.500000E-002 [C]  Min=-16.15 [C]
   *************
   *************  ** Warning ** CalcDoe2DXCoil: Coil:Cooling:DX:SingleSpeed="COIL COOLING DX SINGLE SPEED 13 145KBTU/HR 9.26EER" - Air volume flow rate per watt of rated total cooling capacity is out of range error continues...
   *************  **   ~~~   **   This error occurred 197422 total times;
   *************  **   ~~~   **   during Warmup 0 times;
   *************  **   ~~~   **   during Sizing 0 times.
   *************  **   ~~~   **   Max=2.683977E-005  Min=2.356712E-006
   *************
   *************  ** Warning ** CalcDoe2DXCoil: Coil:Cooling:DX:SingleSpeed="COIL COOLING DX SINGLE SPEED 13 145KBTU/HR 9.26EER" - Full load outlet temperature indicates a possibility of frost/freeze error continues. Outlet air temperature statistics follow:
   *************  **   ~~~   **   This error occurred 5620 total times;
   *************  **   ~~~   **   during Warmup 0 times;
   *************  **   ~~~   **   during Sizing 0 times.
   *************  **   ~~~   **   Max=1.997765  Min=-345.973651
   *************
   *************  ** Warning ** CalcDoe2DXCoil: Coil:Cooling:DX:SingleSpeed="COIL COOLING DX SINGLE SPEED 9 338KBTU/HR 8.39EER" - Low condenser dry-bulb temperature error continues...
   *************  **   ~~~   **   This error occurred 1007 total times;
   *************  **   ~~~   **   during Warmup 0 times;
   *************  **   ~~~   **   during Sizing 0 times.
   *************  **   ~~~   **   Max=-2.500000E-002 [C]  Min=-18.8 [C]
   *************
   *************  ** Warning ** CalcDoe2DXCoil: Coil:Cooling:DX:SingleSpeed="COIL COOLING DX SINGLE SPEED 16 114KBTU/HR 9.44EER" - Low condenser dry-bulb temperature error continues...
   *************  **   ~~~   **   This error occurred 1169 total times;
   *************  **   ~~~   **   during Warmup 0 times;
   *************  **   ~~~   **   during Sizing 0 times.
   *************  **   ~~~   **   Max=-2.500000E-002 [C]  Min=-18.8 [C]
   *************
   *************  ** Warning ** CalcDoe2DXCoil: Coil:Cooling:DX:SingleSpeed="COIL COOLING DX SINGLE SPEED 16 114KBTU/HR 9.44EER" - Air volume flow rate per watt of rated total cooling capacity is out of range error continues...
   *************  **   ~~~   **   This error occurred 192368 total times;
   *************  **   ~~~   **   during Warmup 0 times;
   *************  **   ~~~   **   during Sizing 0 times.
   *************  **   ~~~   **   Max=2.683999E-005  Min=2.009772E-006
   *************
   *************  ** Warning ** CalcDoe2DXCoil: Coil:Cooling:DX:SingleSpeed="COIL COOLING DX SINGLE SPEED 16 114KBTU/HR 9.44EER" - Full load outlet temperature indicates a possibility of frost/freeze error continues. Outlet air temperature statistics follow:
   *************  **   ~~~   **   This error occurred 3870 total times;
   *************  **   ~~~   **   during Warmup 0 times;
   *************  **   ~~~   **   during Sizing 0 times.
   *************  **   ~~~   **   Max=1.989361  Min=-434.826283
   *************
   *************  ** Warning ** CalcDoe2DXCoil: Coil:Cooling:DX:SingleSpeed="COIL COOLING DX SINGLE SPEED 9 338KBTU/HR 8.39EER" - Air volume flow rate per watt of rated total cooling capacity is out of range error continues...
   *************  **   ~~~   **   This error occurred 207310 total times;
   *************  **   ~~~   **   during Warmup 0 times;
   *************  **   ~~~   **   during Sizing 0 times.
   *************  **   ~~~   **   Max=2.683998E-005  Min=2.019996E-006
   *************
   *************  ** Warning ** CalcDoe2DXCoil: Coil:Cooling:DX:SingleSpeed="COIL COOLING DX SINGLE SPEED 9 338KBTU/HR 8.39EER" - Full load outlet temperature indicates a possibility of frost/freeze error continues. Outlet air temperature statistics follow:
   *************  **   ~~~   **   This error occurred 4034 total times;
   *************  **   ~~~   **   during Warmup 0 times;
   *************  **   ~~~   **   during Sizing 0 times.
   *************  **   ~~~   **   Max=1.999705  Min=-433.497545
   *************
   *************  ** Warning ** SimHVAC: Exceeding Maximum iterations for all HVAC loops, during RUN PERIOD 1 continues
   *************  **   ~~~   **   This error occurred 5340 total times;
   *************  **   ~~~   **   during Warmup 0 times;
   *************  **   ~~~   **   during Sizing 0 times.
   *************
   *************  ** Warning ** CalcDoe2DXCoil: Coil:Cooling:DX:SingleSpeed="COIL COOLING DX SINGLE SPEED 2 523KBTU/HR 8.39EER" - Low condenser dry-bulb temperature error continues...
   *************  **   ~~~   **   This error occurred 507 total times;
   *************  **   ~~~   **   during Warmup 0 times;
   *************  **   ~~~   **   during Sizing 0 times.
   *************  **   ~~~   **   Max=-2.500000E-002 [C]  Min=-11.625 [C]
   *************
   *************  ** Warning ** CalcDoe2DXCoil: Coil:Cooling:DX:SingleSpeed="COIL COOLING DX SINGLE SPEED 2 523KBTU/HR 8.39EER" - Full load outlet temperature indicates a possibility of frost/freeze error continues. Outlet air temperature statistics follow:
   *************  **   ~~~   **   This error occurred 5752 total times;
   *************  **   ~~~   **   during Warmup 0 times;
   *************  **   ~~~   **   during Sizing 0 times.
   *************  **   ~~~   **   Max=1.999756  Min=-203.422212
   *************
   *************  ** Warning ** CalcDoe2DXCoil: Coil:Cooling:DX:SingleSpeed="COIL COOLING DX SINGLE SPEED 2 523KBTU/HR 8.39EER" - Air volume flow rate per watt of rated total cooling capacity is out of range error continues...
   *************  **   ~~~   **   This error occurred 294910 total times;
   *************  **   ~~~   **   during Warmup 0 times;
   *************  **   ~~~   **   during Sizing 0 times.
   *************  **   ~~~   **   Max=2.683996E-005  Min=2.193999E-006
   *************
   *************  ** Warning ** CalcDoe2DXCoil: Coil:WaterHeating:AirToWaterHeatPump:Pumped="COIL WATER HEATING AIR TO WATER HEAT PUMP 1" - Full load outlet temperature indicates a possibility of frost/freeze error continues. Outlet air temperature statistics follow:
   *************  **   ~~~   **   This error occurred 1170 total times;
   *************  **   ~~~   **   during Warmup 0 times;
   *************  **   ~~~   **   during Sizing 0 times.
   *************  **   ~~~   **   Max=1.999893  Min=0.536383
   *************
   *************  ** Warning ** CalcDoe2DXCoil: Coil:Cooling:DX:SingleSpeed="COIL COOLING DX SINGLE SPEED 1 49KBTU/HR 14.0SEER" - Air volume flow rate per watt of rated total cooling capacity is out of range error continues...
   *************  **   ~~~   **   This error occurred 81958 total times;
   *************  **   ~~~   **   during Warmup 0 times;
   *************  **   ~~~   **   during Sizing 0 times.
   *************  **   ~~~   **   Max=2.683725E-005  Min=2.206613E-006
   *************
   *************  ** Warning ** CalcDoe2DXCoil: Coil:Cooling:DX:SingleSpeed="COIL COOLING DX SINGLE SPEED 1 49KBTU/HR 14.0SEER" - Full load outlet temperature indicates a possibility of frost/freeze error continues. Outlet air temperature statistics follow:
   *************  **   ~~~   **   This error occurred 1520 total times;
   *************  **   ~~~   **   during Warmup 0 times;
   *************  **   ~~~   **   during Sizing 0 times.
   *************  **   ~~~   **   Max=1.997463  Min=-348.170636
   *************
   *************  ** Warning ** CalcDoe2DXCoil: Coil:Cooling:DX:SingleSpeed="COIL COOLING DX SINGLE SPEED 1 49KBTU/HR 14.0SEER" - Low condenser dry-bulb temperature error continues...
   *************  **   ~~~   **   This error occurred 32 total times;
   *************  **   ~~~   **   during Warmup 0 times;
   *************  **   ~~~   **   during Sizing 0 times.
   *************  **   ~~~   **   Max=-2.500000E-002 [C]  Min=-2.9 [C]
   *************
   *************
   ************* ===== Final Error Summary =====
   ************* The following error categories occurred.  Consider correcting or noting.
   ************* Nominally Unused Constructions
   ************* ..The nominally unused constructions warning is provided to alert you to potential conditions that can cause
   ************* ..extra time during simulation. Each construction is calculated by the algorithm indicated in the HeatBalanceAlgorithm
   ************* ..object. You may remove the constructions indicated (when you use the DisplayExtraWarnings option).
   *************
   ************* EnergyPlus Warmup Error Summary. During Warmup: 0 Warning; 0 Severe Errors.
   ************* EnergyPlus Sizing Error Summary. During Sizing: 308 Warning; 720 Severe Errors.
   ************* EnergyPlus Completed Successfully-- 41633140 Warning; 720 Severe Errors; Elapsed Time=00hr 07min 44.86sec
