! Program Version,EnergyPlus, Version 8.9.0-497bb3e71c, YMD=2018.06.14 14:53,
! Output:Meter Objects (applicable to this run)
Output:Meter,Electricity:Facility,hourly; !- [J]
Output:Meter:Cumulative,Electricity:Facility,hourly; !- [J]
Output:Meter,Electricity:Building,hourly; !- [J]
Output:Meter:Cumulative,Electricity:Building,hourly; !- [J]
Output:Meter,Electricity:Zone:DINING ZN,hourly; !- [J]
Output:Meter:Cumulative,Electricity:Zone:DINING ZN,hourly; !- [J]
Output:Meter,InteriorLights:Electricity,hourly; !- [J]
Output:Meter:Cumulative,InteriorLights:Electricity,hourly; !- [J]
Output:Meter,InteriorLights:Electricity:Zone:DINING ZN,hourly; !- [J]
Output:Meter:Cumulative,InteriorLights:Electricity:Zone:DINING ZN,hourly; !- [J]
Output:Meter,General:InteriorLights:Electricity,hourly; !- [J]
Output:Meter:Cumulative,General:InteriorLights:Electricity,hourly; !- [J]
Output:Meter,Electricity:Zone:KITCHEN ZN,hourly; !- [J]
Output:Meter:Cumulative,Electricity:Zone:KITCHEN ZN,hourly; !- [J]
Output:Meter,InteriorLights:Electricity:Zone:KITCHEN ZN,hourly; !- [J]
Output:Meter:Cumulative,InteriorLights:Electricity:Zone:KITCHEN ZN,hourly; !- [J]
Output:Meter,InteriorEquipment:Electricity,hourly; !- [J]
Output:Meter:Cumulative,InteriorEquipment:Electricity,hourly; !- [J]
Output:Meter,InteriorEquipment:Electricity:Zone:DINING ZN,hourly; !- [J]
Output:Meter:Cumulative,InteriorEquipment:Electricity:Zone:DINING ZN,hourly; !- [J]
Output:Meter,General:InteriorEquipment:Electricity,hourly; !- [J]
Output:Meter:Cumulative,General:InteriorEquipment:Electricity,hourly; !- [J]
Output:Meter,InteriorEquipment:Electricity:Zone:KITCHEN ZN,hourly; !- [J]
Output:Meter:Cumulative,InteriorEquipment:Electricity:Zone:KITCHEN ZN,hourly; !- [J]
Output:Meter,EnergyTransfer:Facility,hourly; !- [J]
Output:Meter:Cumulative,EnergyTransfer:Facility,hourly; !- [J]
Output:Meter,EnergyTransfer:Building,hourly; !- [J]
Output:Meter:Cumulative,EnergyTransfer:Building,hourly; !- [J]
Output:Meter,EnergyTransfer:Zone:ATTIC ZN,hourly; !- [J]
Output:Meter:Cumulative,EnergyTransfer:Zone:ATTIC ZN,hourly; !- [J]
Output:Meter,Heating:EnergyTransfer,hourly; !- [J]
Output:Meter:Cumulative,Heating:EnergyTransfer,hourly; !- [J]
Output:Meter,Heating:EnergyTransfer:Zone:ATTIC ZN,hourly; !- [J]
Output:Meter:Cumulative,Heating:EnergyTransfer:Zone:ATTIC ZN,hourly; !- [J]
Output:Meter,Cooling:EnergyTransfer,hourly; !- [J]
Output:Meter:Cumulative,Cooling:EnergyTransfer,hourly; !- [J]
Output:Meter,Cooling:EnergyTransfer:Zone:ATTIC ZN,hourly; !- [J]
Output:Meter:Cumulative,Cooling:EnergyTransfer:Zone:ATTIC ZN,hourly; !- [J]
Output:Meter,EnergyTransfer:Zone:DINING ZN,hourly; !- [J]
Output:Meter:Cumulative,EnergyTransfer:Zone:DINING ZN,hourly; !- [J]
Output:Meter,Heating:EnergyTransfer:Zone:DINING ZN,hourly; !- [J]
Output:Meter:Cumulative,Heating:EnergyTransfer:Zone:DINING ZN,hourly; !- [J]
Output:Meter,Cooling:EnergyTransfer:Zone:DINING ZN,hourly; !- [J]
Output:Meter:Cumulative,Cooling:EnergyTransfer:Zone:DINING ZN,hourly; !- [J]
Output:Meter,EnergyTransfer:Zone:KITCHEN ZN,hourly; !- [J]
Output:Meter:Cumulative,EnergyTransfer:Zone:KITCHEN ZN,hourly; !- [J]
Output:Meter,Heating:EnergyTransfer:Zone:KITCHEN ZN,hourly; !- [J]
Output:Meter:Cumulative,Heating:EnergyTransfer:Zone:KITCHEN ZN,hourly; !- [J]
Output:Meter,Cooling:EnergyTransfer:Zone:KITCHEN ZN,hourly; !- [J]
Output:Meter:Cumulative,Cooling:EnergyTransfer:Zone:KITCHEN ZN,hourly; !- [J]
Output:Meter,ElectricityPurchased:Facility,hourly; !- [J]
Output:Meter:Cumulative,ElectricityPurchased:Facility,hourly; !- [J]
Output:Meter,ElectricityPurchased:Plant,hourly; !- [J]
Output:Meter:Cumulative,ElectricityPurchased:Plant,hourly; !- [J]
Output:Meter,Cogeneration:ElectricityPurchased,hourly; !- [J]
Output:Meter:Cumulative,Cogeneration:ElectricityPurchased,hourly; !- [J]
Output:Meter,ElectricitySurplusSold:Facility,hourly; !- [J]
Output:Meter:Cumulative,ElectricitySurplusSold:Facility,hourly; !- [J]
Output:Meter,ElectricitySurplusSold:Plant,hourly; !- [J]
Output:Meter:Cumulative,ElectricitySurplusSold:Plant,hourly; !- [J]
Output:Meter,Cogeneration:ElectricitySurplusSold,hourly; !- [J]
Output:Meter:Cumulative,Cogeneration:ElectricitySurplusSold,hourly; !- [J]
Output:Meter,ElectricityNet:Facility,hourly; !- [J]
Output:Meter:Cumulative,ElectricityNet:Facility,hourly; !- [J]
Output:Meter,ElectricityNet:Plant,hourly; !- [J]
Output:Meter:Cumulative,ElectricityNet:Plant,hourly; !- [J]
Output:Meter,Cogeneration:ElectricityNet,hourly; !- [J]
Output:Meter:Cumulative,Cogeneration:ElectricityNet,hourly; !- [J]
Output:Meter,DistrictHeating:Facility,hourly; !- [J]
Output:Meter:Cumulative,DistrictHeating:Facility,hourly; !- [J]
Output:Meter,DistrictHeating:HVAC,hourly; !- [J]
Output:Meter:Cumulative,DistrictHeating:HVAC,hourly; !- [J]
Output:Meter,Heating:DistrictHeating,hourly; !- [J]
Output:Meter:Cumulative,Heating:DistrictHeating,hourly; !- [J]
Output:Meter,DistrictCooling:Facility,hourly; !- [J]
Output:Meter:Cumulative,DistrictCooling:Facility,hourly; !- [J]
Output:Meter,DistrictCooling:HVAC,hourly; !- [J]
Output:Meter:Cumulative,DistrictCooling:HVAC,hourly; !- [J]
Output:Meter,Cooling:DistrictCooling,hourly; !- [J]
Output:Meter:Cumulative,Cooling:DistrictCooling,hourly; !- [J]
Output:Meter,Carbon Equivalent:Facility,hourly; !- [kg]
Output:Meter:Cumulative,Carbon Equivalent:Facility,hourly; !- [kg]
Output:Meter,CarbonEquivalentEmissions:Carbon Equivalent,hourly; !- [kg]
Output:Meter:Cumulative,CarbonEquivalentEmissions:Carbon Equivalent,hourly; !- [kg]
