Program Version,EnergyPlus, Version 8.9.0-eba93e8e1b, YMD=2018.11.01 15:55
! This file shows details about the branches, nodes, and other
! elements of the flow connections.
! This file is intended for use in "debugging" potential problems
! that may also be detected by the program, but may be more easily
! identified by "eye".
! This file is also intended to support software which draws a
! schematic diagram of the HVAC system.
! ===============================================================
! #Nodes,<Number of Unique Nodes>
 #Nodes,31
! <Node>,<NodeNumber>,<Node Name>,<Node Fluid Type>,<# Times Node Referenced After Definition>
 Node,1,NODE 3,Air,2
 Node,2,NODE 2,Air,2
 Node,3,NODE 6,Air,2
 Node,4,NODE 5,Air,2
 Node,5,NODE 9,Air,2
 Node,6,NODE 8,Air,2
 Node,7,NODE 12,Air,2
 Node,8,NODE 11,Air,2
 Node,9,NODE 15,Air,2
 Node,10,NODE 14,Air,2
 Node,11,NODE 18,Air,2
 Node,12,NODE 17,Air,2
 Node,13,NODE 1,Air,0
 Node,14,ATTIC ZN RETURN AIR NODE,Air,0
 Node,15,NODE 4,Air,0
 Node,16,CORE_ZN ZN RETURN AIR NODE,Air,0
 Node,17,NODE 7,Air,0
 Node,18,PERIMETER_ZN_1 ZN RETURN AIR NODE,Air,0
 Node,19,NODE 10,Air,0
 Node,20,PERIMETER_ZN_2 ZN RETURN AIR NODE,Air,0
 Node,21,NODE 13,Air,0
 Node,22,PERIMETER_ZN_3 ZN RETURN AIR NODE,Air,0
 Node,23,NODE 16,Air,0
 Node,24,PERIMETER_ZN_4 ZN RETURN AIR NODE,Air,0
 Node,25,MODEL OUTDOOR AIR NODE,Air,0
 Node,26,ZONE HVAC IDEAL LOADS AIR SYSTEM 1 OUTDOOR AIR INLET NODE,Air,1
 Node,27,ZONE HVAC IDEAL LOADS AIR SYSTEM 2 OUTDOOR AIR INLET NODE,Air,1
 Node,28,ZONE HVAC IDEAL LOADS AIR SYSTEM 3 OUTDOOR AIR INLET NODE,Air,1
 Node,29,ZONE HVAC IDEAL LOADS AIR SYSTEM 4 OUTDOOR AIR INLET NODE,Air,1
 Node,30,ZONE HVAC IDEAL LOADS AIR SYSTEM 5 OUTDOOR AIR INLET NODE,Air,1
 Node,31,ZONE HVAC IDEAL LOADS AIR SYSTEM 6 OUTDOOR AIR INLET NODE,Air,1
! ===============================================================
! Suspicious nodes have 0 references.  It is normal for some nodes, however.
! Listing nodes with 0 references (culled from previous list):
! <Suspicious Node>,<NodeNumber>,<Node Name>,<Node Fluid Type>,<# Times Node Referenced After Definition>
 Suspicious Node,13,NODE 1,Air,0
 Suspicious Node,14,ATTIC ZN RETURN AIR NODE,Air,0
 Suspicious Node,15,NODE 4,Air,0
 Suspicious Node,16,CORE_ZN ZN RETURN AIR NODE,Air,0
 Suspicious Node,17,NODE 7,Air,0
 Suspicious Node,18,PERIMETER_ZN_1 ZN RETURN AIR NODE,Air,0
 Suspicious Node,19,NODE 10,Air,0
 Suspicious Node,20,PERIMETER_ZN_2 ZN RETURN AIR NODE,Air,0
 Suspicious Node,21,NODE 13,Air,0
 Suspicious Node,22,PERIMETER_ZN_3 ZN RETURN AIR NODE,Air,0
 Suspicious Node,23,NODE 16,Air,0
 Suspicious Node,24,PERIMETER_ZN_4 ZN RETURN AIR NODE,Air,0
 Suspicious Node,25,MODEL OUTDOOR AIR NODE,Air,0
! ===============================================================
! <#Branch Lists>,<Number of Branch Lists>
 #Branch Lists,0
! <Branch List>,<Branch List Count>,<Branch List Name>,<Loop Name>,<Loop Type>,<Number of Branches>
! <Branch>,<Branch Count>,<Branch Name>,<Loop Name>,<Loop Type>,<Branch Inlet Node Name>,<Branch Outlet Node Name>
! ===============================================================
! <#Supply Air Paths>,<Number of Supply Air Paths>
 #Supply Air Paths,0
! <Supply Air Path>,<Supply Air Path Count>,<Supply Air Path Name>,<AirLoopHVAC Name>
! <#Components on Supply Air Path>,<Number of Components>
! <Supply Air Path Component>,<Component Count>,<Component Type>,<Component Name>,<AirLoopHVAC Name>
! <#Outlet Nodes on Supply Air Path Component>,<Number of Nodes>
! <Supply Air Path Component Nodes>,<Node Count>,<Component Type>,<Component Name>,<Inlet Node Name>,<Outlet Node Name>,<AirLoopHVAC Name>
! ===============================================================
! <#Return Air Paths>,<Number of Return Air Paths>
 #Return Air Paths,0
! <Return Air Path>,<Return Air Path Count>,<Return Air Path Name>,<AirLoopHVAC Name>
! <#Components on Return Air Path>,<Number of Components>
! <Return Air Path Component>,<Component Count>,<Component Type>,<Component Name>,<AirLoopHVAC Name>
! <#Inlet Nodes on Return Air Path Component>,<Number of Nodes>
! <Return Air Path Component Nodes>,<Node Count>,<Component Type>,<Component Name>,<Inlet Node Name>,<Outlet Node Name>,<AirLoopHVAC Name>
! ===============================================================
! #Outdoor Air Nodes,<Number of Outdoor Air Nodes>
 #Outdoor Air Nodes,7
! <Outdoor Air Node>,<NodeNumber>,<Node Name>
 Outdoor Air Node,25,MODEL OUTDOOR AIR NODE
 Outdoor Air Node,26,ZONE HVAC IDEAL LOADS AIR SYSTEM 1 OUTDOOR AIR INLET NODE
 Outdoor Air Node,27,ZONE HVAC IDEAL LOADS AIR SYSTEM 2 OUTDOOR AIR INLET NODE
 Outdoor Air Node,28,ZONE HVAC IDEAL LOADS AIR SYSTEM 3 OUTDOOR AIR INLET NODE
 Outdoor Air Node,29,ZONE HVAC IDEAL LOADS AIR SYSTEM 4 OUTDOOR AIR INLET NODE
 Outdoor Air Node,30,ZONE HVAC IDEAL LOADS AIR SYSTEM 5 OUTDOOR AIR INLET NODE
 Outdoor Air Node,31,ZONE HVAC IDEAL LOADS AIR SYSTEM 6 OUTDOOR AIR INLET NODE
! ===============================================================
! <#Component Sets>,<Number of Component Sets>
 #Component Sets,0
! <Component Set>,<Component Set Count>,<Parent Object Type>,<Parent Object Name>,<Component Type>,<Component Name>,<Inlet Node ID>,<Outlet Node ID>,<Description>
! ===============================================================
! <# Plant Loops>,<Number of Plant Loops>
 #Plant Loops,0
! <Plant Loop>,<Plant Loop Name>,<Loop Type>,<Inlet Node Name>,<Outlet Node Name>,<Branch List>,<Connector List>
! <Plant Loop Connector>,<Connector Type>,<Connector Name>,<Loop Name>,<Loop Type>,<Number of Inlets/Outlets>
! <Plant Loop Connector Branches>,<Connector Node Count>,<Connector Type>,<Connector Name>,<Inlet Branch>,<Outlet Branch>,<Loop Name>,<Loop Type>
! <Plant Loop Connector Nodes>,<Connector Node Count>,<Connector Type>,<Connector Name>,<Inlet Node>,<Outlet Node>,<Loop Name>,<Loop Type>
! <Plant Loop Supply Connection>,<Plant Loop Name>,<Supply Side Outlet Node Name>,<Demand Side Inlet Node Name>
! <Plant Loop Return Connection>,<Plant Loop Name>,<Demand Side Outlet Node Name>,<Supply Side Inlet Node Name>
! ===============================================================
! <# Condenser Loops>,<Number of Condenser Loops>
 #Condenser Loops,0
! <Condenser Loop>,<Condenser Loop Name>,<Loop Type>,<Inlet Node Name>,<Outlet Node Name>,<Branch List>,<Connector List>
! <Condenser Loop Connector>,<Connector Type>,<Connector Name>,<Loop Name>,<Loop Type>,<Number of Inlets/Outlets>
! <Condenser Loop Connector Branches>,<Connector Node Count>,<Connector Type>,<Connector Name>,<Inlet Branch>,<Outlet Branch>,<Loop Name>,<Loop Type>
! <Condenser Loop Connector Nodes>,<Connector Node Count>,<Connector Type>,<Connector Name>,<Inlet Node>,<Outlet Node>,<Loop Name>,<Loop Type>
! <Condenser Loop Supply Connection>,<Condenser Loop Name>,<Supply Side Outlet Node Name>,<Demand Side Inlet Node Name>
! <Condenser Loop Return Connection>,<Condenser Loop Name>,<Demand Side Outlet Node Name>,<Supply Side Inlet Node Name>
! ===============================================================
! <# Controlled Zones>,<Number of Controlled Zones>
 #Controlled Zones,6
! <Controlled Zone>,<Controlled Zone Name>,<Equip List Name>,<Control List Name>,<Zone Node Name>,<# Inlet Nodes>,<# Exhaust Nodes>,<# Return Nodes>
! <Controlled Zone Inlet>,<Inlet Node Count>,<Controlled Zone Name>,<Supply Air Inlet Node Name>,<SD Sys:Cooling/Heating [DD:Cooling] Inlet Node Name>,<DD Sys:Heating Inlet Node Name>
! <Controlled Zone Exhaust>,<Exhaust Node Count>,<Controlled Zone Name>,<Exhaust Air Node Name>
 Controlled Zone,ATTIC ZN,ATTIC ZN EQUIPMENT LIST,,NODE 1,1,1,1
   Controlled Zone Inlet,1,ATTIC ZN,NODE 3,Undefined,N/A
   Controlled Zone Exhaust,1,ATTIC ZN,NODE 2
   Controlled Zone Return,1,ATTIC ZN,ATTIC ZN RETURN AIR NODE
 Controlled Zone,CORE_ZN ZN,CORE_ZN ZN EQUIPMENT LIST,,NODE 4,1,1,1
   Controlled Zone Inlet,1,CORE_ZN ZN,NODE 6,Undefined,N/A
   Controlled Zone Exhaust,1,CORE_ZN ZN,NODE 5
   Controlled Zone Return,1,CORE_ZN ZN,CORE_ZN ZN RETURN AIR NODE
 Controlled Zone,PERIMETER_ZN_1 ZN,PERIMETER_ZN_1 ZN EQUIPMENT LIST,,NODE 7,1,1,1
   Controlled Zone Inlet,1,PERIMETER_ZN_1 ZN,NODE 9,Undefined,N/A
   Controlled Zone Exhaust,1,PERIMETER_ZN_1 ZN,NODE 8
   Controlled Zone Return,1,PERIMETER_ZN_1 ZN,PERIMETER_ZN_1 ZN RETURN AIR NODE
 Controlled Zone,PERIMETER_ZN_2 ZN,PERIMETER_ZN_2 ZN EQUIPMENT LIST,,NODE 10,1,1,1
   Controlled Zone Inlet,1,PERIMETER_ZN_2 ZN,NODE 12,Undefined,N/A
   Controlled Zone Exhaust,1,PERIMETER_ZN_2 ZN,NODE 11
   Controlled Zone Return,1,PERIMETER_ZN_2 ZN,PERIMETER_ZN_2 ZN RETURN AIR NODE
 Controlled Zone,PERIMETER_ZN_3 ZN,PERIMETER_ZN_3 ZN EQUIPMENT LIST,,NODE 13,1,1,1
   Controlled Zone Inlet,1,PERIMETER_ZN_3 ZN,NODE 15,Undefined,N/A
   Controlled Zone Exhaust,1,PERIMETER_ZN_3 ZN,NODE 14
   Controlled Zone Return,1,PERIMETER_ZN_3 ZN,PERIMETER_ZN_3 ZN RETURN AIR NODE
 Controlled Zone,PERIMETER_ZN_4 ZN,PERIMETER_ZN_4 ZN EQUIPMENT LIST,,NODE 16,1,1,1
   Controlled Zone Inlet,1,PERIMETER_ZN_4 ZN,NODE 18,Undefined,N/A
   Controlled Zone Exhaust,1,PERIMETER_ZN_4 ZN,NODE 17
   Controlled Zone Return,1,PERIMETER_ZN_4 ZN,PERIMETER_ZN_4 ZN RETURN AIR NODE
! ===============================================================
! <#Zone Equipment Lists>,<Number of Zone Equipment Lists>
 #Zone Equipment Lists,6
! <Zone Equipment List>,<Zone Equipment List Count>,<Zone Equipment List Name>,<Zone Name>,<Number of Components>
! <Zone Equipment Component>,<Component Count>,<Component Type>,<Component Name>,<Zone Name>,<Heating Priority>,<Cooling Priority>
 Zone Equipment List,1,ATTIC ZN EQUIPMENT LIST,ATTIC ZN,1
   Zone Equipment Component,1,ZONEHVAC:IDEALLOADSAIRSYSTEM,ZONE HVAC IDEAL LOADS AIR SYSTEM 1,ATTIC ZN,1,1
 Zone Equipment List,2,CORE_ZN ZN EQUIPMENT LIST,CORE_ZN ZN,1
   Zone Equipment Component,1,ZONEHVAC:IDEALLOADSAIRSYSTEM,ZONE HVAC IDEAL LOADS AIR SYSTEM 2,CORE_ZN ZN,1,1
 Zone Equipment List,3,PERIMETER_ZN_1 ZN EQUIPMENT LIST,PERIMETER_ZN_1 ZN,1
   Zone Equipment Component,1,ZONEHVAC:IDEALLOADSAIRSYSTEM,ZONE HVAC IDEAL LOADS AIR SYSTEM 3,PERIMETER_ZN_1 ZN,1,1
 Zone Equipment List,4,PERIMETER_ZN_2 ZN EQUIPMENT LIST,PERIMETER_ZN_2 ZN,1
   Zone Equipment Component,1,ZONEHVAC:IDEALLOADSAIRSYSTEM,ZONE HVAC IDEAL LOADS AIR SYSTEM 4,PERIMETER_ZN_2 ZN,1,1
 Zone Equipment List,5,PERIMETER_ZN_3 ZN EQUIPMENT LIST,PERIMETER_ZN_3 ZN,1
   Zone Equipment Component,1,ZONEHVAC:IDEALLOADSAIRSYSTEM,ZONE HVAC IDEAL LOADS AIR SYSTEM 5,PERIMETER_ZN_3 ZN,1,1
 Zone Equipment List,6,PERIMETER_ZN_4 ZN EQUIPMENT LIST,PERIMETER_ZN_4 ZN,1
   Zone Equipment Component,1,ZONEHVAC:IDEALLOADSAIRSYSTEM,ZONE HVAC IDEAL LOADS AIR SYSTEM 6,PERIMETER_ZN_4 ZN,1,1
! ===============================================================
! <#AirLoopHVACs>,<Number of AirLoopHVACs>
 #AirLoopHVACs,0
! <AirLoopHVAC>,<Air Loop Name>,<# Return Nodes>,<# Supply Nodes>,<# Zones Cooled>,<# Zones Heated>,<Outdoor Air Used>
! <AirLoop Return Connections>,<Connection Count>,<AirLoopHVAC Name>,<Zn Eqp Return Node #>,<Zn Eqp Return Node Name>,<AirLoop Return Node #>,<Air Loop Return Node Name>
! <AirLoop Supply Connections>,<Connection Count>,<AirLoopHVAC Name>,<Zn Eqp Supply Node #>,<Zn Eqp Supply Node Name>,<AirLoop Supply Node #>,<Air Loop Supply Node Name>
! <Cooled Zone Info>,<Cooled Zone Count>,<Cooled Zone Name>,<Cooled Zone Inlet Node #>,<Cooled Zone Inlet Node Name>,<AirLoopHVAC Name>
! <Heated Zone Info>,<Heated Zone Count>,<Heated Zone Name>,<Heated Zone Inlet Node #>,<Heated Zone Inlet Node Name>,<AirLoopHVAC Name>
! <Outdoor Air Connections>,<OA Inlet Node #>,<OA Return Air Inlet Node Name>,<OA Outlet Node #>,<OA Mixed Air Outlet Node Name>,<AirLoopHVAC Name>
! <AirLoopHVAC Connector>,<Connector Type>,<Connector Name>,<Loop Name>,<Loop Type>,<Number of Inlets/Outlets>
! <AirLoopHVAC Connector Branches>,<Connector Node Count>,<Connector Type>,<Connector Name>,<Inlet Branch>,<Outlet Branch>,<Loop Name>,<Loop Type>
! <AirLoopHVAC Connector Nodes>,<Connector Node Count>,<Connector Type>,<Connector Name>,<Inlet Node>,<Outlet Node>,<Loop Name>,<Loop Type>
! ===============================================================
! <#Parent Node Connections>,<Number of Parent Node Connections>
 #Parent Node Connections,0
! <Parent Node Connection>,<Node Name>,<Node ObjectType>,<Node ObjectName>,<Node ConnectionType>,<Node FluidStream>
! ===============================================================
! <#Non-Parent Node Connections>,<Number of Non-Parent Node Connections>
 #Non-Parent Node Connections,49
! <Non-Parent Node Connection>,<Node Name>,<Node ObjectType>,<Node ObjectName>,<Node ConnectionType>,<Node FluidStream>
 Non-Parent Node Connection,NODE 1,ZONEHVAC:EQUIPMENTCONNECTIONS,ATTIC ZN,ZoneNode,1
 Non-Parent Node Connection,NODE 3,ZONEHVAC:EQUIPMENTCONNECTIONS,ATTIC ZN,ZoneInlet,1
 Non-Parent Node Connection,NODE 2,ZONEHVAC:EQUIPMENTCONNECTIONS,ATTIC ZN,ZoneExhaust,1
 Non-Parent Node Connection,ATTIC ZN RETURN AIR NODE,ZONEHVAC:EQUIPMENTCONNECTIONS,ATTIC ZN,ZoneReturn,1
 Non-Parent Node Connection,NODE 4,ZONEHVAC:EQUIPMENTCONNECTIONS,CORE_ZN ZN,ZoneNode,1
 Non-Parent Node Connection,NODE 6,ZONEHVAC:EQUIPMENTCONNECTIONS,CORE_ZN ZN,ZoneInlet,1
 Non-Parent Node Connection,NODE 5,ZONEHVAC:EQUIPMENTCONNECTIONS,CORE_ZN ZN,ZoneExhaust,1
 Non-Parent Node Connection,CORE_ZN ZN RETURN AIR NODE,ZONEHVAC:EQUIPMENTCONNECTIONS,CORE_ZN ZN,ZoneReturn,1
 Non-Parent Node Connection,NODE 7,ZONEHVAC:EQUIPMENTCONNECTIONS,PERIMETER_ZN_1 ZN,ZoneNode,1
 Non-Parent Node Connection,NODE 9,ZONEHVAC:EQUIPMENTCONNECTIONS,PERIMETER_ZN_1 ZN,ZoneInlet,1
 Non-Parent Node Connection,NODE 8,ZONEHVAC:EQUIPMENTCONNECTIONS,PERIMETER_ZN_1 ZN,ZoneExhaust,1
 Non-Parent Node Connection,PERIMETER_ZN_1 ZN RETURN AIR NODE,ZONEHVAC:EQUIPMENTCONNECTIONS,PERIMETER_ZN_1 ZN,ZoneReturn,1
 Non-Parent Node Connection,NODE 10,ZONEHVAC:EQUIPMENTCONNECTIONS,PERIMETER_ZN_2 ZN,ZoneNode,1
 Non-Parent Node Connection,NODE 12,ZONEHVAC:EQUIPMENTCONNECTIONS,PERIMETER_ZN_2 ZN,ZoneInlet,1
 Non-Parent Node Connection,NODE 11,ZONEHVAC:EQUIPMENTCONNECTIONS,PERIMETER_ZN_2 ZN,ZoneExhaust,1
 Non-Parent Node Connection,PERIMETER_ZN_2 ZN RETURN AIR NODE,ZONEHVAC:EQUIPMENTCONNECTIONS,PERIMETER_ZN_2 ZN,ZoneReturn,1
 Non-Parent Node Connection,NODE 13,ZONEHVAC:EQUIPMENTCONNECTIONS,PERIMETER_ZN_3 ZN,ZoneNode,1
 Non-Parent Node Connection,NODE 15,ZONEHVAC:EQUIPMENTCONNECTIONS,PERIMETER_ZN_3 ZN,ZoneInlet,1
 Non-Parent Node Connection,NODE 14,ZONEHVAC:EQUIPMENTCONNECTIONS,PERIMETER_ZN_3 ZN,ZoneExhaust,1
 Non-Parent Node Connection,PERIMETER_ZN_3 ZN RETURN AIR NODE,ZONEHVAC:EQUIPMENTCONNECTIONS,PERIMETER_ZN_3 ZN,ZoneReturn,1
 Non-Parent Node Connection,NODE 16,ZONEHVAC:EQUIPMENTCONNECTIONS,PERIMETER_ZN_4 ZN,ZoneNode,1
 Non-Parent Node Connection,NODE 18,ZONEHVAC:EQUIPMENTCONNECTIONS,PERIMETER_ZN_4 ZN,ZoneInlet,1
 Non-Parent Node Connection,NODE 17,ZONEHVAC:EQUIPMENTCONNECTIONS,PERIMETER_ZN_4 ZN,ZoneExhaust,1
 Non-Parent Node Connection,PERIMETER_ZN_4 ZN RETURN AIR NODE,ZONEHVAC:EQUIPMENTCONNECTIONS,PERIMETER_ZN_4 ZN,ZoneReturn,1
 Non-Parent Node Connection,MODEL OUTDOOR AIR NODE,OUTDOORAIR:NODE,OutdoorAir:Node,OutdoorAir,1
 Non-Parent Node Connection,NODE 3,ZONEHVAC:IDEALLOADSAIRSYSTEM,ZONE HVAC IDEAL LOADS AIR SYSTEM 1,Outlet,1
 Non-Parent Node Connection,NODE 2,ZONEHVAC:IDEALLOADSAIRSYSTEM,ZONE HVAC IDEAL LOADS AIR SYSTEM 1,Inlet,1
 Non-Parent Node Connection,ZONE HVAC IDEAL LOADS AIR SYSTEM 1 OUTDOOR AIR INLET NODE,ZONEHVAC:IDEALLOADSAIRSYSTEM,ZONE HVAC IDEAL LOADS AIR SYSTEM 1,Outlet,1
 Non-Parent Node Connection,ZONE HVAC IDEAL LOADS AIR SYSTEM 1 OUTDOOR AIR INLET NODE,OUTDOORAIR:NODE,OutdoorAir:Node,OutdoorAir,2
 Non-Parent Node Connection,NODE 6,ZONEHVAC:IDEALLOADSAIRSYSTEM,ZONE HVAC IDEAL LOADS AIR SYSTEM 2,Outlet,1
 Non-Parent Node Connection,NODE 5,ZONEHVAC:IDEALLOADSAIRSYSTEM,ZONE HVAC IDEAL LOADS AIR SYSTEM 2,Inlet,1
 Non-Parent Node Connection,ZONE HVAC IDEAL LOADS AIR SYSTEM 2 OUTDOOR AIR INLET NODE,ZONEHVAC:IDEALLOADSAIRSYSTEM,ZONE HVAC IDEAL LOADS AIR SYSTEM 2,Outlet,1
 Non-Parent Node Connection,ZONE HVAC IDEAL LOADS AIR SYSTEM 2 OUTDOOR AIR INLET NODE,OUTDOORAIR:NODE,OutdoorAir:Node,OutdoorAir,3
 Non-Parent Node Connection,NODE 9,ZONEHVAC:IDEALLOADSAIRSYSTEM,ZONE HVAC IDEAL LOADS AIR SYSTEM 3,Outlet,1
 Non-Parent Node Connection,NODE 8,ZONEHVAC:IDEALLOADSAIRSYSTEM,ZONE HVAC IDEAL LOADS AIR SYSTEM 3,Inlet,1
 Non-Parent Node Connection,ZONE HVAC IDEAL LOADS AIR SYSTEM 3 OUTDOOR AIR INLET NODE,ZONEHVAC:IDEALLOADSAIRSYSTEM,ZONE HVAC IDEAL LOADS AIR SYSTEM 3,Outlet,1
 Non-Parent Node Connection,ZONE HVAC IDEAL LOADS AIR SYSTEM 3 OUTDOOR AIR INLET NODE,OUTDOORAIR:NODE,OutdoorAir:Node,OutdoorAir,4
 Non-Parent Node Connection,NODE 12,ZONEHVAC:IDEALLOADSAIRSYSTEM,ZONE HVAC IDEAL LOADS AIR SYSTEM 4,Outlet,1
 Non-Parent Node Connection,NODE 11,ZONEHVAC:IDEALLOADSAIRSYSTEM,ZONE HVAC IDEAL LOADS AIR SYSTEM 4,Inlet,1
 Non-Parent Node Connection,ZONE HVAC IDEAL LOADS AIR SYSTEM 4 OUTDOOR AIR INLET NODE,ZONEHVAC:IDEALLOADSAIRSYSTEM,ZONE HVAC IDEAL LOADS AIR SYSTEM 4,Outlet,1
 Non-Parent Node Connection,ZONE HVAC IDEAL LOADS AIR SYSTEM 4 OUTDOOR AIR INLET NODE,OUTDOORAIR:NODE,OutdoorAir:Node,OutdoorAir,5
 Non-Parent Node Connection,NODE 15,ZONEHVAC:IDEALLOADSAIRSYSTEM,ZONE HVAC IDEAL LOADS AIR SYSTEM 5,Outlet,1
 Non-Parent Node Connection,NODE 14,ZONEHVAC:IDEALLOADSAIRSYSTEM,ZONE HVAC IDEAL LOADS AIR SYSTEM 5,Inlet,1
 Non-Parent Node Connection,ZONE HVAC IDEAL LOADS AIR SYSTEM 5 OUTDOOR AIR INLET NODE,ZONEHVAC:IDEALLOADSAIRSYSTEM,ZONE HVAC IDEAL LOADS AIR SYSTEM 5,Outlet,1
 Non-Parent Node Connection,ZONE HVAC IDEAL LOADS AIR SYSTEM 5 OUTDOOR AIR INLET NODE,OUTDOORAIR:NODE,OutdoorAir:Node,OutdoorAir,6
 Non-Parent Node Connection,NODE 18,ZONEHVAC:IDEALLOADSAIRSYSTEM,ZONE HVAC IDEAL LOADS AIR SYSTEM 6,Outlet,1
 Non-Parent Node Connection,NODE 17,ZONEHVAC:IDEALLOADSAIRSYSTEM,ZONE HVAC IDEAL LOADS AIR SYSTEM 6,Inlet,1
 Non-Parent Node Connection,ZONE HVAC IDEAL LOADS AIR SYSTEM 6 OUTDOOR AIR INLET NODE,ZONEHVAC:IDEALLOADSAIRSYSTEM,ZONE HVAC IDEAL LOADS AIR SYSTEM 6,Outlet,1
 Non-Parent Node Connection,ZONE HVAC IDEAL LOADS AIR SYSTEM 6 OUTDOOR AIR INLET NODE,OUTDOORAIR:NODE,OutdoorAir:Node,OutdoorAir,7
