Program Version,EnergyPlus, Version 8.9.0-eba93e8e1b, YMD=2019.08.13 17:25
! <Version>, Version ID
 Version, 8.9
! <Timesteps per Hour>, #TimeSteps, Minutes per TimeStep {minutes}
 Timesteps per Hour,  6, 10
! <System Convergence Limits>, Minimum System TimeStep {minutes}, Max HVAC Iterations, Minimum Plant Iterations, Maximum Plant Iterations
 System Convergence Limits, 1, 20, 2, 8
! <Simulation Control>, Do Zone Sizing, Do System Sizing, Do Plant Sizing, Do Design Days, Do Weather Simulation, Do HVAC Sizing Simulation
 Simulation Control, Yes, Yes, Yes, No, Yes, No
! <Output Reporting Tolerances>, Tolerance for Time Heating Setpoint Not Met, Tolerance for Zone Cooling Setpoint Not Met Time
 Output Reporting Tolerances, 1.000, 1.000, 
! <Site:GroundTemperature:BuildingSurface>,Jan{C},Feb{C},Mar{C},Apr{C},May{C},Jun{C},Jul{C},Aug{C},Sep{C},Oct{C},Nov{C},Dec{C}
 Site:GroundTemperature:BuildingSurface,  19.53,  19.50,  19.54,  19.60,  20.00,  21.64,  22.23,  22.38,  21.45,  20.12,  19.80,  19.63
! <Site:GroundTemperature:FCfactorMethod>,Jan{C},Feb{C},Mar{C},Apr{C},May{C},Jun{C},Jul{C},Aug{C},Sep{C},Oct{C},Nov{C},Dec{C}
 Site:GroundTemperature:FCfactorMethod,  -5.25,  -6.52,  -4.28,  -0.76,   8.43,  15.52,  20.30,  21.76,  19.28,  13.77,   6.41,  -0.41
! <Site:GroundTemperature:Shallow>,Jan{C},Feb{C},Mar{C},Apr{C},May{C},Jun{C},Jul{C},Aug{C},Sep{C},Oct{C},Nov{C},Dec{C}
 Site:GroundTemperature:Shallow,  13.00,  13.00,  13.00,  13.00,  13.00,  13.00,  13.00,  13.00,  13.00,  13.00,  13.00,  13.00
! <Site:GroundTemperature:Deep>,Jan{C},Feb{C},Mar{C},Apr{C},May{C},Jun{C},Jul{C},Aug{C},Sep{C},Oct{C},Nov{C},Dec{C}
 Site:GroundTemperature:Deep,  16.00,  16.00,  16.00,  16.00,  16.00,  16.00,  16.00,  16.00,  16.00,  16.00,  16.00,  16.00
! <Site:GroundReflectance>,Jan{dimensionless},Feb{dimensionless},Mar{dimensionless},Apr{dimensionless},May{dimensionless},Jun{dimensionless},Jul{dimensionless},Aug{dimensionless},Sep{dimensionless},Oct{dimensionless},Nov{dimensionless},Dec{dimensionless}
 Site:GroundReflectance,  0.20,  0.20,  0.20,  0.20,  0.20,  0.20,  0.20,  0.20,  0.20,  0.20,  0.20,  0.20
! <Site:GroundReflectance:SnowModifier>, Normal, Daylighting {dimensionless}
 Site:GroundReflectance:SnowModifier,   1.000,   1.000
! <Site:GroundReflectance:Snow>,Jan{dimensionless},Feb{dimensionless},Mar{dimensionless},Apr{dimensionless},May{dimensionless},Jun{dimensionless},Jul{dimensionless},Aug{dimensionless},Sep{dimensionless},Oct{dimensionless},Nov{dimensionless},Dec{dimensionless}
 Site:GroundReflectance:Snow,  0.20,  0.20,  0.20,  0.20,  0.20,  0.20,  0.20,  0.20,  0.20,  0.20,  0.20,  0.20
! <Site:GroundReflectance:Snow:Daylighting>,Jan{dimensionless},Feb{dimensionless},Mar{dimensionless},Apr{dimensionless},May{dimensionless},Jun{dimensionless},Jul{dimensionless},Aug{dimensionless},Sep{dimensionless},Oct{dimensionless},Nov{dimensionless},Dec{dimensionless}
 Site:GroundReflectance:Snow:Daylighting,  0.20,  0.20,  0.20,  0.20,  0.20,  0.20,  0.20,  0.20,  0.20,  0.20,  0.20,  0.20
! <Environment:Weather Station>,Wind Sensor Height Above Ground {m},Wind Speed Profile Exponent {},Wind Speed Profile Boundary Layer Thickness {m},Air Temperature Sensor Height Above Ground {m},Wind Speed Modifier Coefficient-Internal,Temperature Modifier Coefficient-Internal
Environment:Weather Station,10.000,0.140,270.000,1.500,1.586,9.750E-003
! <Site:Location>, Location Name, Latitude {N+/S- Deg}, Longitude {E+/W- Deg},  Time Zone Number {GMT+/-}, Elevation {m},  Standard Pressure at Elevation {Pa}, Standard RhoAir at Elevation
Site:Location,Montreal-Trudeau Intl AP QC CAN CWEC2016 WMO#=716270,45.47,-73.74,-5.00,36.00,100893,1.1992
! <Building Information>, Building Name,North Axis {deg},Terrain,  Loads Convergence Tolerance Value,Temperature Convergence Tolerance Value,  Solar Distribution,Maximum Number of Warmup Days,Minimum Number of Warmup Days
 Building Information,Warehouse-CAN_QC_Montreal-Trudeau.Intl.AP.716270_CWEC2016.epw created: 2019-08-08 00:10:13 +0000,0.000,Suburbs,4.00000E-002,0.40000,FullExterior,25,6
! <Inside Convection Algorithm>, Algorithm {Simple | TARP | CeilingDiffuser | AdaptiveConvectionAlgorithm}
Inside Convection Algorithm,TARP
! <Outside Convection Algorithm>, Algorithm {SimpleCombined | TARP | MoWitt | DOE-2 | AdaptiveConvectionAlgorithm}
Outside Convection Algorithm,TARP
! <Sky Radiance Distribution>, Value {Anisotropic}
Sky Radiance Distribution,Anisotropic
! <Zone Air Solution Algorithm>, Value {ThirdOrderBackwardDifference | AnalyticalSolution | EulerMethod}
 Zone Air Solution Algorithm, ThirdOrderBackwardDifference
! <Zone Air Carbon Dioxide Balance Simulation>, Simulation {Yes/No}, Carbon Dioxide Concentration
 Zone Air Carbon Dioxide Balance Simulation, No,N/A
! <Zone Air Generic Contaminant Balance Simulation>, Simulation {Yes/No}, Generic Contaminant Concentration
 Zone Air Generic Contaminant Balance Simulation, No,N/A
! <Zone Air Mass Flow Balance Simulation>, Enforce Mass Balance, Adjust Zone Mixing, Adjust Zone Infiltration {AddInfiltration | AdjustInfiltration | None}, Infiltration Zones {MixingSourceZonesOnly | AllZones}
 Zone Air Mass Flow Balance Simulation, No,N/A,N/A,N/A
! <HVACSystemRootFindingAlgorithm>, Value {RegulaFalsi | Bisection | BisectionThenRegulaFalsi | RegulaFalsiThenBisection}
 HVACSystemRootFindingAlgorithm, RegulaFalsi
! <Environment:Site Atmospheric Variation>,Wind Speed Profile Exponent {},Wind Speed Profile Boundary Layer Thickness {m},Air Temperature Gradient Coefficient {K/m}
Environment:Site Atmospheric Variation,0.220,370.000,6.500000E-003
! <Surface Geometry>,Starting Corner,Vertex Input Direction,Coordinate System,Daylight Reference Point Coordinate System,Rectangular (Simple) Surface Coordinate System
 Surface Geometry,UpperLeftCorner,Counterclockwise,RelativeCoordinateSystem,RelativeCoordinateSystem,RelativeToZoneOrigin
! <Surface Heat Transfer Algorithm>, Value {CTF - ConductionTransferFunction | EMPD - MoisturePenetrationDepthConductionTransferFunction | CondFD - ConductionFiniteDifference | HAMT - CombinedHeatAndMoistureFiniteElement} - Description,Inside Surface Max Temperature Limit{C}, Surface Convection Coefficient Lower Limit {W/m2-K}, Surface Convection Coefficient Upper Limit {W/m2-K}
Surface Heat Transfer Algorithm, CTF - ConductionTransferFunction,200,0.10,1000.0
! <Shading Summary>, Number of Fixed Detached Shades, Number of Building Detached Shades, Number of Attached Shades
 Shading Summary,0,0,6
! <Zone Summary>, Number of Zones, Number of Zone Surfaces, Number of SubSurfaces
 Zone Summary,3,33,10
! <Zone Information>,Zone Name,North Axis {deg},Origin X-Coordinate {m},Origin Y-Coordinate {m},Origin Z-Coordinate {m},Centroid X-Coordinate {m},Centroid Y-Coordinate {m},Centroid Z-Coordinate {m},Type,Zone Multiplier,Zone List Multiplier,Minimum X {m},Maximum X {m},Minimum Y {m},Maximum Y {m},Minimum Z {m},Maximum Z {m},Ceiling Height {m},Volume {m3},Zone Inside Convection Algorithm {Simple-Detailed-CeilingDiffuser-TrombeWall},Zone Outside Convection Algorithm {Simple-Detailed-Tarp-MoWitt-DOE-2-BLAST}, Floor Area {m2},Exterior Gross Wall Area {m2},Exterior Net Wall Area {m2},Exterior Window Area {m2}, Number of Surfaces, Number of SubSurfaces, Number of Shading SubSurfaces,  Part of Total Building Area
 Zone Information, ALL_ST=OFFICE ENCLOSED <= 25 M2_FL=BUILDING STORY 1_SCH=A,0.0,0.00,0.00,0.00,12.95,4.57,2.13,1,1,1,0.00,25.91,0.00,9.14,0.00,4.27,4.27,1010.76,TARP,TARP,236.88,149.56,113.67,35.89,6,2,2,Yes
 Zone Information, ALL_ST=WAREHOUSE STORAGE AREA MEDIUM TO BULKY PALLETIZED ITEMS_FL=BUILDING STORY 1_SCH=A,0.0,0.00,0.00,0.00,22.86,65.53,4.27,1,1,1,0.00,45.72,30.48,100.58,0.00,8.53,8.53,35277.63,TARP,TARP,3204.84,1586.63,1205.84,380.79,6,3,0,Yes
 Zone Information, ALL_ST=WAREHOUSE STORAGE AREA SMALL HAND-CARRIED ITEMS(4)_FL=BUILDING STORY 1_SCH=A,0.0,0.00,0.00,0.00,22.82,14.29,4.51,1,1,1,0.00,45.72,0.00,30.48,0.00,8.53,7.81,2953.02,TARP,TARP,1393.41,760.80,578.21,182.59,11,5,4,Yes
! <Zone Internal Gains Nominal>,Zone Name, Floor Area {m2},# Occupants,Area per Occupant {m2/person},Occupant per Area {person/m2},Interior Lighting {W/m2},Electric Load {W/m2},Gas Load {W/m2},Other Load {W/m2},Hot Water Eq {W/m2},Steam Equipment {W/m2},Sum Loads per Area {W/m2},Outdoor Controlled Baseboard Heat
 Zone Internal Gains Nominal, ALL_ST=OFFICE ENCLOSED <= 25 M2_FL=BUILDING STORY 1_SCH=A,236.88,11.8,19.993,5.002E-002,4.000,3.751,0.000,0.000,0.000,0.000,7.751,No
 Zone Internal Gains Nominal, ALL_ST=WAREHOUSE STORAGE AREA MEDIUM TO BULKY PALLETIZED ITEMS_FL=BUILDING STORY 1_SCH=A,3204.84,32.1,99.964,1.000E-002,1.800,0.500,0.000,0.000,0.000,0.000,2.300,No
 Zone Internal Gains Nominal, ALL_ST=WAREHOUSE STORAGE AREA SMALL HAND-CARRIED ITEMS(4)_FL=BUILDING STORY 1_SCH=A,1393.41,27.9,49.982,2.001E-002,3.700,0.500,0.000,0.000,0.000,0.000,4.200,No
! <People Internal Gains Nominal>,Name,Schedule Name,Zone Name,Zone Floor Area {m2},# Zone Occupants,Number of People {},People/Floor Area {person/m2},Floor Area per person {m2/person},Fraction Radiant,Fraction Convected,Sensible Fraction Calculation,Activity level,ASHRAE 55 Warnings,Carbon Dioxide Generation Rate,Nominal Minimum Number of People,Nominal Maximum Number of People
 People Internal Gains Nominal, ALL_ST=OFFICE ENCLOSED <= 25 M2_FL=BUILDING STORY 1_SCH=A SPACE FUNCTION OFFICE ENCLOSED <= 25 M2 PEOPLE,NECB-A-OCCUPANCY,ALL_ST=OFFICE ENCLOSED <= 25 M2_FL=BUILDING STORY 1_SCH=A,236.88,11.8,11.8,5.002E-002,19.993,0.300,0.700,AutoCalculate,NECB-ACTIVITY,No,3.8200E-008,0,11
 People Internal Gains Nominal, ALL_ST=WAREHOUSE STORAGE AREA MEDIUM TO BULKY PALLETIZED ITEMS_FL=BUILDING STORY 1_SCH=A SPACE FUNCTION WAREHOUSE STORAGE AREA MEDIUM TO BULKY PALLETIZED ITEMS PEOPLE,NECB-A-OCCUPANCY,ALL_ST=WAREHOUSE STORAGE AREA MEDIUM TO BULKY PALLETIZED ITEMS_FL=BUILDING STORY 1_SCH=A,3204.84,32.1,32.1,1.000E-002,99.964,0.300,0.700,AutoCalculate,NECB-ACTIVITY,No,3.8200E-008,0,29
 People Internal Gains Nominal, ALL_ST=WAREHOUSE STORAGE AREA SMALL HAND-CARRIED ITEMS(4)_FL=BUILDING STORY 1_SCH=A SPACE FUNCTION WAREHOUSE STORAGE AREA SMALL HAND-CARRIED ITEMS(4) PEOPLE,NECB-A-OCCUPANCY,ALL_ST=WAREHOUSE STORAGE AREA SMALL HAND-CARRIED ITEMS(4)_FL=BUILDING STORY 1_SCH=A,1393.41,27.9,27.9,2.001E-002,49.982,0.300,0.700,AutoCalculate,NECB-ACTIVITY,No,3.8200E-008,0,25
! <Lights Internal Gains Nominal>,Name,Schedule Name,Zone Name,Zone Floor Area {m2},# Zone Occupants,Lighting Level {W},Lights/Floor Area {W/m2},Lights per person {W/person},Fraction Return Air,Fraction Radiant,Fraction Short Wave,Fraction Convected,Fraction Replaceable,End-Use Category,Nominal Minimum Lighting Level {W},Nominal Maximum Lighting Level {W}
 Lights Internal Gains Nominal, ALL_ST=OFFICE ENCLOSED <= 25 M2_FL=BUILDING STORY 1_SCH=A SPACE FUNCTION OFFICE ENCLOSED <= 25 M2 LIGHTS 85.0 PERCENT REDUCTION,NECB-A-OCCUPANCY-NECB-A-LIGHTING-0.3-0.1-0.67-LIGHT RULESET,ALL_ST=OFFICE ENCLOSED <= 25 M2_FL=BUILDING STORY 1_SCH=A,236.88,11.8,947.519,4.000,79.971,0.000,0.500,0.200,0.300,1.000,General,33.116,852.767
 Lights Internal Gains Nominal, ALL_ST=WAREHOUSE STORAGE AREA MEDIUM TO BULKY PALLETIZED ITEMS_FL=BUILDING STORY 1_SCH=A SPACE FUNCTION WAREHOUSE STORAGE AREA MEDIUM TO BULKY PALLETIZED ITEMS LIGHTS 85.0 PERCENT REDUCTION,NECB-A-LIGHTING,ALL_ST=WAREHOUSE STORAGE AREA MEDIUM TO BULKY PALLETIZED ITEMS_FL=BUILDING STORY 1_SCH=A,3204.84,32.1,5768.716,1.800,179.935,0.000,0.500,0.200,0.300,1.000,General,288.436,5191.844
 Lights Internal Gains Nominal, ALL_ST=WAREHOUSE STORAGE AREA SMALL HAND-CARRIED ITEMS(4)_FL=BUILDING STORY 1_SCH=A SPACE FUNCTION WAREHOUSE STORAGE AREA SMALL HAND-CARRIED ITEMS(4) LIGHTS 85.0 PERCENT REDUCTION,NECB-A-LIGHTING,ALL_ST=WAREHOUSE STORAGE AREA SMALL HAND-CARRIED ITEMS(4)_FL=BUILDING STORY 1_SCH=A,1393.41,27.9,5155.616,3.700,184.933,0.000,0.500,0.200,0.300,1.000,General,257.781,4640.054
! <ElectricEquipment Internal Gains Nominal>,Name,Schedule Name,Zone Name,Zone Floor Area {m2},# Zone Occupants,Equipment Level {W},Equipment/Floor Area {W/m2},Equipment per person {W/person},Fraction Latent,Fraction Radiant,Fraction Lost,Fraction Convected,End-Use SubCategory,Nominal Minimum Equipment Level {W},Nominal Maximum Equipment Level {W}
 ElectricEquipment Internal Gains Nominal, ALL_ST=OFFICE ENCLOSED <= 25 M2_FL=BUILDING STORY 1_SCH=A SPACE FUNCTION OFFICE ENCLOSED <= 25 M2 ELEC EQUIP 50.0 PERCENT REDUCTION,NECB-A-ELECTRIC-EQUIPMENT,ALL_ST=OFFICE ENCLOSED <= 25 M2_FL=BUILDING STORY 1_SCH=A,236.88,11.8,888.622,3.751,75.000,0.000,0.500,0.000,0.500,General,177.724,799.759
 ElectricEquipment Internal Gains Nominal, ALL_ST=WAREHOUSE STORAGE AREA MEDIUM TO BULKY PALLETIZED ITEMS_FL=BUILDING STORY 1_SCH=A SPACE FUNCTION WAREHOUSE STORAGE AREA MEDIUM TO BULKY PALLETIZED ITEMS ELEC EQUIP 50.0 PERCENT REDUCTION,NECB-A-ELECTRIC-EQUIPMENT,ALL_ST=WAREHOUSE STORAGE AREA MEDIUM TO BULKY PALLETIZED ITEMS_FL=BUILDING STORY 1_SCH=A,3204.84,32.1,1603.003,0.500,50.000,0.000,0.500,0.000,0.500,General,320.601,1442.703
 ElectricEquipment Internal Gains Nominal, ALL_ST=WAREHOUSE STORAGE AREA SMALL HAND-CARRIED ITEMS(4)_FL=BUILDING STORY 1_SCH=A SPACE FUNCTION WAREHOUSE STORAGE AREA SMALL HAND-CARRIED ITEMS(4) ELEC EQUIP 50.0 PERCENT REDUCTION,NECB-A-ELECTRIC-EQUIPMENT,ALL_ST=WAREHOUSE STORAGE AREA SMALL HAND-CARRIED ITEMS(4)_FL=BUILDING STORY 1_SCH=A,1393.41,27.9,696.958,0.500,25.000,0.000,0.500,0.000,0.500,General,139.392,627.262
! <Shadowing/Sun Position Calculations Annual Simulations>, Calculation Method, Value {days}, Allowable Number Figures in Shadow Overlap {}, Polygon Clipping Algorithm, Sky Diffuse Modeling Algorithm, External Shading Calculation Method, Output External Shading Calculation Results, Disable Self-Shading Within Shading Zone Groups, Disable Self-Shading From Shading Zone Groups to Other Zones
Shadowing/Sun Position Calculations Annual Simulations,AverageOverDaysInFrequency,20,15000,SutherlandHodgman,SimpleSkyDiffuseModeling,InternalCalculation,No,No,No
! <Water Heater Information>,Type,Name,Volume {m3},Maximum Capacity {W},Standard Rated Recovery Efficiency, Standard Rated Energy Factor
! <Heat Pump Water Heater Information>,Type,Name,Volume {m3},Maximum Capacity {W},Standard Rated Recovery Efficiency,Standard Rated Energy Factor,"DX Coil Total Cooling Rate {W, HPWH Only}"
! <ZoneInfiltration Airflow Stats Nominal>,Name,Schedule Name,Zone Name, Zone Floor Area {m2}, # Zone Occupants,Design Volume Flow Rate {m3/s},Volume Flow Rate/Floor Area {m3/s/m2},Volume Flow Rate/Exterior Surface Area {m3/s/m2},ACH - Air Changes per Hour,Equation A - Constant Term Coefficient {},Equation B - Temperature Term Coefficient {1/C},Equation C - Velocity Term Coefficient {s/m}, Equation D - Velocity Squared Term Coefficient {s2/m2}
 ZoneInfiltration Airflow Stats Nominal, ZONE1 OFFICE INFILTRATION,ALWAYS ON DISCRETE,ALL_ST=OFFICE ENCLOSED <= 25 M2_FL=BUILDING STORY 1_SCH=A,236.88,11.8,2.058E-002,8.688E-005,1.376E-004,7.330E-002,0.000,0.000,0.224,0.000
 ZoneInfiltration Airflow Stats Nominal, ZONE3 BULK STORAGE INFILTRATION,ALWAYS ON DISCRETE,ALL_ST=WAREHOUSE STORAGE AREA MEDIUM TO BULKY PALLETIZED ITEMS_FL=BUILDING STORY 1_SCH=A,3204.84,32.1,0.659,2.057E-004,1.376E-004,6.728E-002,0.000,0.000,0.224,0.000
 ZoneInfiltration Airflow Stats Nominal, ZONE2 FINE STORAGE INFILTRATION,ALWAYS ON DISCRETE,ALL_ST=WAREHOUSE STORAGE AREA SMALL HAND-CARRIED ITEMS(4)_FL=BUILDING STORY 1_SCH=A,1393.41,27.9,0.296,2.127E-004,1.376E-004,0.361,0.000,0.000,0.224,0.000
! <AirFlow Model>, Simple
 AirFlow Model, Simple
! <RoomAir Model>, Zone Name, Mixing/Mundt/UCSDDV/UCSDCV/UCSDUFI/UCSDUFE/User Defined
RoomAir Model,ALL_ST=OFFICE ENCLOSED <= 25 M2_FL=BUILDING STORY 1_SCH=A,Mixing/Well-Stirred
RoomAir Model,ALL_ST=WAREHOUSE STORAGE AREA MEDIUM TO BULKY PALLETIZED ITEMS_FL=BUILDING STORY 1_SCH=A,Mixing/Well-Stirred
RoomAir Model,ALL_ST=WAREHOUSE STORAGE AREA SMALL HAND-CARRIED ITEMS(4)_FL=BUILDING STORY 1_SCH=A,Mixing/Well-Stirred
! <AirflowNetwork Model:Control>, No Multizone or Distribution/Multizone with Distribution/Multizone without Distribution/Multizone with Distribution only during Fan Operation
AirflowNetwork Model:Control,NoMultizoneOrDistribution
! <Zone Volume Capacitance Multiplier>, Sensible Heat Capacity Multiplier, Moisture Capacity Multiplier, Carbon Dioxide Capacity Multiplier, Generic Contaminant Capacity Multiplier
Zone Volume Capacitance Multiplier,   1.000 ,   1.000,   1.000,   1.000
! <Load Timesteps in Zone Design Calculation Averaging Window>, Value
 Load Timesteps in Zone Design Calculation Averaging Window,    6
! <Heating Sizing Factor Information>, Sizing Factor ID, Value
 Heating Sizing Factor Information, Global,   1.3000    
 Heating Sizing Factor Information, Zone ALL_ST=OFFICE ENCLOSED <= 25 M2_FL=BUILDING STORY 1_SCH=A,   1.3000    
 Heating Sizing Factor Information, Zone ALL_ST=WAREHOUSE STORAGE AREA MEDIUM TO BULKY PALLETIZED ITEMS_FL=BUILDING STORY 1_SCH=A,   1.3000    
 Heating Sizing Factor Information, Zone ALL_ST=WAREHOUSE STORAGE AREA SMALL HAND-CARRIED ITEMS(4)_FL=BUILDING STORY 1_SCH=A,   1.3000    
! <Cooling Sizing Factor Information>, Sizing Factor ID, Value
 Cooling Sizing Factor Information, Global,   1.1000    
 Cooling Sizing Factor Information, Zone ALL_ST=OFFICE ENCLOSED <= 25 M2_FL=BUILDING STORY 1_SCH=A,   1.1000    
 Cooling Sizing Factor Information, Zone ALL_ST=WAREHOUSE STORAGE AREA MEDIUM TO BULKY PALLETIZED ITEMS_FL=BUILDING STORY 1_SCH=A,   1.1000    
 Cooling Sizing Factor Information, Zone ALL_ST=WAREHOUSE STORAGE AREA SMALL HAND-CARRIED ITEMS(4)_FL=BUILDING STORY 1_SCH=A,   1.1000    
! <Zone Sizing Information>, Zone Name, Load Type, Calc Des Load {W}, User Des Load {W}, Calc Des Air Flow Rate {m3/s}, User Des Air Flow Rate {m3/s}, Design Day Name, Date/Time of Peak, Temperature at Peak {C}, Humidity Ratio at Peak {kgWater/kgDryAir}, Floor Area {m2}, # Occupants, Calc Outdoor Air Flow Rate {m3/s}, Calc DOAS Heat Addition Rate {W}
 Zone Sizing Information, ALL_ST=OFFICE ENCLOSED <= 25 M2_FL=BUILDING STORY 1_SCH=A, Cooling, 5669.61077, 6236.57185, 0.42117, 0.46328, MONTREAL-TRUDEAU INTL AP ANN CLG .4% CONDNS DB=>MWB, 7/21 17:00:00, 28.75400, 1.35428E-002, 236.87965, 11.84829, 9.98779E-002, 0.00000
 Zone Sizing Information, ALL_ST=OFFICE ENCLOSED <= 25 M2_FL=BUILDING STORY 1_SCH=A, Heating, 6654.83109, 8651.28041, 0.25473, 0.33115, MONTREAL-TRUDEAU INTL AP ANN HTG 99.6% CONDNS DB, 1/21 08:00:00, -23.10000, 4.71376E-004, 236.87965, 11.84829, 9.98779E-002, 0.00000
 Zone Sizing Information, ALL_ST=WAREHOUSE STORAGE AREA MEDIUM TO BULKY PALLETIZED ITEMS_FL=BUILDING STORY 1_SCH=A, Cooling, 77488.85648, 85237.74213, 5.75588, 6.33147, MONTREAL-TRUDEAU INTL AP ANN CLG .4% CONDNS DB=>MWB, 7/21 16:20:00, 29.22867, 1.35428E-002, 3204.84228, 32.06007, 0.97684, 0.00000
 Zone Sizing Information, ALL_ST=WAREHOUSE STORAGE AREA MEDIUM TO BULKY PALLETIZED ITEMS_FL=BUILDING STORY 1_SCH=A, Heating, 116989.26482, 152086.04426, 4.40330, 5.72429, MONTREAL-TRUDEAU INTL AP ANN HTG 99.6% CONDNS DB, 1/21 08:00:00, -23.10000, 4.71376E-004, 3204.84228, 32.06007, 0.97684, 0.00000
 Zone Sizing Information, ALL_ST=WAREHOUSE STORAGE AREA SMALL HAND-CARRIED ITEMS(4)_FL=BUILDING STORY 1_SCH=A, Cooling, 34697.08001, 38166.78801, 2.57761, 2.83537, MONTREAL-TRUDEAU INTL AP ANN CLG .4% CONDNS DB=>MWB, 7/21 16:20:00, 29.22867, 1.35428E-002, 1393.40969, 27.87832, 0.42471, 0.00000
 Zone Sizing Information, ALL_ST=WAREHOUSE STORAGE AREA SMALL HAND-CARRIED ITEMS(4)_FL=BUILDING STORY 1_SCH=A, Heating, 38283.99659, 49769.19556, 1.47540, 1.91801, MONTREAL-TRUDEAU INTL AP ANN HTG 99.6% CONDNS DB, 1/21 08:00:00, -23.10000, 4.71376E-004, 1393.40969, 27.87832, 0.42471, 0.00000
! <System Sizing Information>, System Name, Load Type, Peak Load Kind, User Design Capacity, Calc Des Air Flow Rate [m3/s], User Des Air Flow Rate [m3/s], Design Day Name, Date/Time of Peak
 System Sizing Information, SYS_3_PSZ ALL_ST=OFFICE ENCLOSED <= 25 M2_FL=BUILDING STORY 1_SCH=A, Cooling, Sensible, 6712.45, 0.46328, 0.46328, MONTREAL-TRUDEAU INTL AP ANN CLG .4% CONDNS DB=>MWB, 7/21 05:00:00
 System Sizing Information, SYS_3_PSZ ALL_ST=OFFICE ENCLOSED <= 25 M2_FL=BUILDING STORY 1_SCH=A, Heating, Sensible, 13854.67, 0.33115, 0.33115, MONTREAL-TRUDEAU INTL AP ANN HTG 99.6% CONDNS DB, 1/21 08:00:00
 System Sizing Information, SYS_4_PSZ_ALL_ST=WAREHOUSE STORAGE AREA MEDIUM TO BULKY PALLETIZED ITEMS_FL=BUILDING STORY 1_SCH=A, Cooling, Sensible, 90074.94, 6.33147, 6.33147, MONTREAL-TRUDEAU INTL AP ANN CLG .4% CONDNS DB=>MWB, 7/21 05:00:00
 System Sizing Information, SYS_4_PSZ_ALL_ST=WAREHOUSE STORAGE AREA MEDIUM TO BULKY PALLETIZED ITEMS_FL=BUILDING STORY 1_SCH=A, Heating, Sensible, 199659.07, 5.72429, 5.72429, MONTREAL-TRUDEAU INTL AP ANN HTG 99.6% CONDNS DB, 1/21 08:00:00
 System Sizing Information, SYS_4_PSZ_ALL_ST=WAREHOUSE STORAGE AREA SMALL HAND-CARRIED ITEMS(4)_FL=BUILDING STORY 1_SCH=A, Cooling, Sensible, 40253.48, 2.83537, 2.83537, MONTREAL-TRUDEAU INTL AP ANN CLG .4% CONDNS DB=>MWB, 7/21 05:00:00
 System Sizing Information, SYS_4_PSZ_ALL_ST=WAREHOUSE STORAGE AREA SMALL HAND-CARRIED ITEMS(4)_FL=BUILDING STORY 1_SCH=A, Heating, Sensible, 71772.54, 1.91801, 1.91801, MONTREAL-TRUDEAU INTL AP ANN HTG 99.6% CONDNS DB, 1/21 08:00:00
! <Component Sizing Information>, Component Type, Component Name, Input Field Description, Value
 Component Sizing Information, ZoneHVAC:EnergyRecoveryVentilator, ALL_ST=OFFICE ENCLOSED <= 25 M2_FL=BUILDING STORY 1_SCH=A ERV DOAS, Design Size Supply Air Flow Rate [m3/s], 9.98779E-002
 Component Sizing Information, Fan:OnOff, ALL_ST=OFFICE ENCLOSED <= 25 M2_FL=BUILDING STORY 1_SCH=A ERV SUP FAN, Design Size Maximum Flow Rate [m3/s], 9.98779E-002
 Component Sizing Information, Fan:OnOff, ALL_ST=OFFICE ENCLOSED <= 25 M2_FL=BUILDING STORY 1_SCH=A ERV EXH FAN, Design Size Maximum Flow Rate [m3/s], 9.98779E-002
 Component Sizing Information, HeatExchanger:AirToAir:SensibleAndLatent, ALL_ST=OFFICE ENCLOSED <= 25 M2_FL=BUILDING STORY 1_SCH=A ERV HX, Design Size Nominal Supply Air Flow Rate [m3/s], 9.98779E-002
 Component Sizing Information, ZoneHVAC:EnergyRecoveryVentilator, ALL_ST=OFFICE ENCLOSED <= 25 M2_FL=BUILDING STORY 1_SCH=A ERV DOAS, Design Size Exhaust Air Flow Rate [m3/s], 9.98779E-002
 Component Sizing Information, ZONEHVAC:BASEBOARD:CONVECTIVE:ELECTRIC, ZONE HVAC BASEBOARD CONVECTIVE ELECTRIC 1, Design Size Heating Design Capacity [W], 8651.28041
 Component Sizing Information, AirTerminal:SingleDuct:VAV:HeatAndCool:NoReheat, ALL_ST=OFFICE ENCLOSED <= 25 M2_FL=BUILDING STORY 1_SCH=A VAV TERMINAL, Design Size Maximum Air Flow Rate [m3/s], 0.46328
 Component Sizing Information, AirTerminal:SingleDuct:VAV:HeatAndCool:NoReheat, ALL_ST=OFFICE ENCLOSED <= 25 M2_FL=BUILDING STORY 1_SCH=A VAV TERMINAL, Design Size Constant Minimum Air Flow Fraction, 0.38961
 Component Sizing Information, AirTerminal:SingleDuct:VAV:HeatAndCool:NoReheat, ALL_ST=OFFICE ENCLOSED <= 25 M2_FL=BUILDING STORY 1_SCH=A VAV TERMINAL, User-Specified Constant Minimum Air Flow Fraction, 5.00000E-002
 Component Sizing Information, AirTerminal:SingleDuct:VAV:HeatAndCool:NoReheat, ALL_ST=OFFICE ENCLOSED <= 25 M2_FL=BUILDING STORY 1_SCH=A VAV TERMINAL, Design Size Minimum Air Flow Rate [m3/s], 2.31642E-002
 Component Sizing Information, ZoneHVAC:EnergyRecoveryVentilator, ALL_ST=WAREHOUSE STORAGE AREA MEDIUM TO BULKY PALLETIZED ITEMS_FL=BUILDING STORY 1_SCH=A ERV DOAS, Design Size Supply Air Flow Rate [m3/s], 0.97684
 Component Sizing Information, Fan:OnOff, ALL_ST=WAREHOUSE STORAGE AREA MEDIUM TO BULKY PALLETIZED ITEMS_FL=BUILDING STORY 1_SCH=A ERV SUP FAN, Design Size Maximum Flow Rate [m3/s], 0.97684
 Component Sizing Information, Fan:OnOff, ALL_ST=WAREHOUSE STORAGE AREA MEDIUM TO BULKY PALLETIZED ITEMS_FL=BUILDING STORY 1_SCH=A ERV EXH FAN, Design Size Maximum Flow Rate [m3/s], 0.97684
 Component Sizing Information, HeatExchanger:AirToAir:SensibleAndLatent, ALL_ST=WAREHOUSE STORAGE AREA MEDIUM TO BULKY PALLETIZED ITEMS_FL=BUILDING STORY 1_SCH=A ERV HX, Design Size Nominal Supply Air Flow Rate [m3/s], 0.97684
 Component Sizing Information, ZoneHVAC:EnergyRecoveryVentilator, ALL_ST=WAREHOUSE STORAGE AREA MEDIUM TO BULKY PALLETIZED ITEMS_FL=BUILDING STORY 1_SCH=A ERV DOAS, Design Size Exhaust Air Flow Rate [m3/s], 0.97684
 Component Sizing Information, ZONEHVAC:BASEBOARD:CONVECTIVE:ELECTRIC, ZONE HVAC BASEBOARD CONVECTIVE ELECTRIC 3, Design Size Heating Design Capacity [W], 152086.04426
 Component Sizing Information, AirTerminal:SingleDuct:VAV:HeatAndCool:NoReheat, ALL_ST=WAREHOUSE STORAGE AREA MEDIUM TO BULKY PALLETIZED ITEMS_FL=BUILDING STORY 1_SCH=A VAV TERMINAL, Design Size Maximum Air Flow Rate [m3/s], 6.33147
 Component Sizing Information, AirTerminal:SingleDuct:VAV:HeatAndCool:NoReheat, ALL_ST=WAREHOUSE STORAGE AREA MEDIUM TO BULKY PALLETIZED ITEMS_FL=BUILDING STORY 1_SCH=A VAV TERMINAL, Design Size Constant Minimum Air Flow Fraction, 0.38571
 Component Sizing Information, AirTerminal:SingleDuct:VAV:HeatAndCool:NoReheat, ALL_ST=WAREHOUSE STORAGE AREA MEDIUM TO BULKY PALLETIZED ITEMS_FL=BUILDING STORY 1_SCH=A VAV TERMINAL, User-Specified Constant Minimum Air Flow Fraction, 5.00000E-002
 Component Sizing Information, AirTerminal:SingleDuct:VAV:HeatAndCool:NoReheat, ALL_ST=WAREHOUSE STORAGE AREA MEDIUM TO BULKY PALLETIZED ITEMS_FL=BUILDING STORY 1_SCH=A VAV TERMINAL, Design Size Minimum Air Flow Rate [m3/s], 0.31657
 Component Sizing Information, ZoneHVAC:EnergyRecoveryVentilator, ALL_ST=WAREHOUSE STORAGE AREA SMALL HAND-CARRIED ITEMS(4)_FL=BUILDING STORY 1_SCH=A ERV DOAS, Design Size Supply Air Flow Rate [m3/s], 0.42471
 Component Sizing Information, Fan:OnOff, ALL_ST=WAREHOUSE STORAGE AREA SMALL HAND-CARRIED ITEMS(4)_FL=BUILDING STORY 1_SCH=A ERV SUP FAN, Design Size Maximum Flow Rate [m3/s], 0.42471
 Component Sizing Information, Fan:OnOff, ALL_ST=WAREHOUSE STORAGE AREA SMALL HAND-CARRIED ITEMS(4)_FL=BUILDING STORY 1_SCH=A ERV EXH FAN, Design Size Maximum Flow Rate [m3/s], 0.42471
 Component Sizing Information, HeatExchanger:AirToAir:SensibleAndLatent, ALL_ST=WAREHOUSE STORAGE AREA SMALL HAND-CARRIED ITEMS(4)_FL=BUILDING STORY 1_SCH=A ERV HX, Design Size Nominal Supply Air Flow Rate [m3/s], 0.42471
 Component Sizing Information, ZoneHVAC:EnergyRecoveryVentilator, ALL_ST=WAREHOUSE STORAGE AREA SMALL HAND-CARRIED ITEMS(4)_FL=BUILDING STORY 1_SCH=A ERV DOAS, Design Size Exhaust Air Flow Rate [m3/s], 0.42471
 Component Sizing Information, ZONEHVAC:BASEBOARD:CONVECTIVE:ELECTRIC, ZONE HVAC BASEBOARD CONVECTIVE ELECTRIC 2, Design Size Heating Design Capacity [W], 49769.19556
 Component Sizing Information, AirTerminal:SingleDuct:VAV:HeatAndCool:NoReheat, ALL_ST=WAREHOUSE STORAGE AREA SMALL HAND-CARRIED ITEMS(4)_FL=BUILDING STORY 1_SCH=A VAV TERMINAL, Design Size Maximum Air Flow Rate [m3/s], 2.83537
 Component Sizing Information, AirTerminal:SingleDuct:VAV:HeatAndCool:NoReheat, ALL_ST=WAREHOUSE STORAGE AREA SMALL HAND-CARRIED ITEMS(4)_FL=BUILDING STORY 1_SCH=A VAV TERMINAL, Design Size Constant Minimum Air Flow Fraction, 0.37448
 Component Sizing Information, AirTerminal:SingleDuct:VAV:HeatAndCool:NoReheat, ALL_ST=WAREHOUSE STORAGE AREA SMALL HAND-CARRIED ITEMS(4)_FL=BUILDING STORY 1_SCH=A VAV TERMINAL, User-Specified Constant Minimum Air Flow Fraction, 5.00000E-002
 Component Sizing Information, AirTerminal:SingleDuct:VAV:HeatAndCool:NoReheat, ALL_ST=WAREHOUSE STORAGE AREA SMALL HAND-CARRIED ITEMS(4)_FL=BUILDING STORY 1_SCH=A VAV TERMINAL, Design Size Minimum Air Flow Rate [m3/s], 0.14177
 Component Sizing Information, AirLoopHVAC, SYS_3_PSZ ALL_ST=OFFICE ENCLOSED <= 25 M2_FL=BUILDING STORY 1_SCH=A, Sum of Air Terminal Maximum Heating Flow Rates [m3/s], 2.31642E-002
 Component Sizing Information, AirLoopHVAC, SYS_3_PSZ ALL_ST=OFFICE ENCLOSED <= 25 M2_FL=BUILDING STORY 1_SCH=A, Sum of Air Terminal Minimum Heating Flow Rates [m3/s], 2.31642E-002
 Component Sizing Information, AirLoopHVAC, SYS_3_PSZ ALL_ST=OFFICE ENCLOSED <= 25 M2_FL=BUILDING STORY 1_SCH=A, Sum of Air Terminal Maximum Flow Rates [m3/s], 0.46328
 Component Sizing Information, AirLoopHVAC, SYS_3_PSZ ALL_ST=OFFICE ENCLOSED <= 25 M2_FL=BUILDING STORY 1_SCH=A, Adjusted Heating Design Air Flow Rate [m3/s], 0.33115
 Component Sizing Information, AirLoopHVAC, SYS_3_PSZ ALL_ST=OFFICE ENCLOSED <= 25 M2_FL=BUILDING STORY 1_SCH=A, Adjusted Cooling Design Air Flow Rate [m3/s], 0.46328
 Component Sizing Information, AirLoopHVAC, SYS_3_PSZ ALL_ST=OFFICE ENCLOSED <= 25 M2_FL=BUILDING STORY 1_SCH=A, Adjusted Main Design Air Flow Rate [m3/s], 0.46328
 Component Sizing Information, AirLoopHVAC, SYS_3_PSZ ALL_ST=OFFICE ENCLOSED <= 25 M2_FL=BUILDING STORY 1_SCH=A, User Heating Air Flow Ratio [], 1.00000
 Component Sizing Information, AirLoopHVAC, SYS_3_PSZ ALL_ST=OFFICE ENCLOSED <= 25 M2_FL=BUILDING STORY 1_SCH=A, Calculated Heating Air Flow Ratio [], 0.71479
 Component Sizing Information, AirLoopHVAC, SYS_4_PSZ_ALL_ST=WAREHOUSE STORAGE AREA MEDIUM TO BULKY PALLETIZED ITEMS_FL=BUILDING STORY 1_SCH=A, Sum of Air Terminal Maximum Heating Flow Rates [m3/s], 0.31657
 Component Sizing Information, AirLoopHVAC, SYS_4_PSZ_ALL_ST=WAREHOUSE STORAGE AREA MEDIUM TO BULKY PALLETIZED ITEMS_FL=BUILDING STORY 1_SCH=A, Sum of Air Terminal Minimum Heating Flow Rates [m3/s], 0.31657
 Component Sizing Information, AirLoopHVAC, SYS_4_PSZ_ALL_ST=WAREHOUSE STORAGE AREA MEDIUM TO BULKY PALLETIZED ITEMS_FL=BUILDING STORY 1_SCH=A, Sum of Air Terminal Maximum Flow Rates [m3/s], 6.33147
 Component Sizing Information, AirLoopHVAC, SYS_4_PSZ_ALL_ST=WAREHOUSE STORAGE AREA MEDIUM TO BULKY PALLETIZED ITEMS_FL=BUILDING STORY 1_SCH=A, Adjusted Heating Design Air Flow Rate [m3/s], 5.72429
 Component Sizing Information, AirLoopHVAC, SYS_4_PSZ_ALL_ST=WAREHOUSE STORAGE AREA MEDIUM TO BULKY PALLETIZED ITEMS_FL=BUILDING STORY 1_SCH=A, Adjusted Cooling Design Air Flow Rate [m3/s], 6.33147
 Component Sizing Information, AirLoopHVAC, SYS_4_PSZ_ALL_ST=WAREHOUSE STORAGE AREA MEDIUM TO BULKY PALLETIZED ITEMS_FL=BUILDING STORY 1_SCH=A, Adjusted Main Design Air Flow Rate [m3/s], 6.33147
 Component Sizing Information, AirLoopHVAC, SYS_4_PSZ_ALL_ST=WAREHOUSE STORAGE AREA MEDIUM TO BULKY PALLETIZED ITEMS_FL=BUILDING STORY 1_SCH=A, User Heating Air Flow Ratio [], 1.00000
 Component Sizing Information, AirLoopHVAC, SYS_4_PSZ_ALL_ST=WAREHOUSE STORAGE AREA MEDIUM TO BULKY PALLETIZED ITEMS_FL=BUILDING STORY 1_SCH=A, Calculated Heating Air Flow Ratio [], 0.90410
 Component Sizing Information, AirLoopHVAC, SYS_4_PSZ_ALL_ST=WAREHOUSE STORAGE AREA SMALL HAND-CARRIED ITEMS(4)_FL=BUILDING STORY 1_SCH=A, Sum of Air Terminal Maximum Heating Flow Rates [m3/s], 0.14177
 Component Sizing Information, AirLoopHVAC, SYS_4_PSZ_ALL_ST=WAREHOUSE STORAGE AREA SMALL HAND-CARRIED ITEMS(4)_FL=BUILDING STORY 1_SCH=A, Sum of Air Terminal Minimum Heating Flow Rates [m3/s], 0.14177
 Component Sizing Information, AirLoopHVAC, SYS_4_PSZ_ALL_ST=WAREHOUSE STORAGE AREA SMALL HAND-CARRIED ITEMS(4)_FL=BUILDING STORY 1_SCH=A, Sum of Air Terminal Maximum Flow Rates [m3/s], 2.83537
 Component Sizing Information, AirLoopHVAC, SYS_4_PSZ_ALL_ST=WAREHOUSE STORAGE AREA SMALL HAND-CARRIED ITEMS(4)_FL=BUILDING STORY 1_SCH=A, Adjusted Heating Design Air Flow Rate [m3/s], 1.91801
 Component Sizing Information, AirLoopHVAC, SYS_4_PSZ_ALL_ST=WAREHOUSE STORAGE AREA SMALL HAND-CARRIED ITEMS(4)_FL=BUILDING STORY 1_SCH=A, Adjusted Cooling Design Air Flow Rate [m3/s], 2.83537
 Component Sizing Information, AirLoopHVAC, SYS_4_PSZ_ALL_ST=WAREHOUSE STORAGE AREA SMALL HAND-CARRIED ITEMS(4)_FL=BUILDING STORY 1_SCH=A, Adjusted Main Design Air Flow Rate [m3/s], 2.83537
 Component Sizing Information, AirLoopHVAC, SYS_4_PSZ_ALL_ST=WAREHOUSE STORAGE AREA SMALL HAND-CARRIED ITEMS(4)_FL=BUILDING STORY 1_SCH=A, User Heating Air Flow Ratio [], 1.00000
 Component Sizing Information, AirLoopHVAC, SYS_4_PSZ_ALL_ST=WAREHOUSE STORAGE AREA SMALL HAND-CARRIED ITEMS(4)_FL=BUILDING STORY 1_SCH=A, Calculated Heating Air Flow Ratio [], 0.67646
 Component Sizing Information, AirLoopHVAC, SYS_3_PSZ ALL_ST=OFFICE ENCLOSED <= 25 M2_FL=BUILDING STORY 1_SCH=A, Design Supply Air Flow Rate [m3/s], 0.46328
 Component Sizing Information, AirLoopHVAC, SYS_4_PSZ_ALL_ST=WAREHOUSE STORAGE AREA MEDIUM TO BULKY PALLETIZED ITEMS_FL=BUILDING STORY 1_SCH=A, Design Supply Air Flow Rate [m3/s], 6.33147
 Component Sizing Information, AirLoopHVAC, SYS_4_PSZ_ALL_ST=WAREHOUSE STORAGE AREA SMALL HAND-CARRIED ITEMS(4)_FL=BUILDING STORY 1_SCH=A, Design Supply Air Flow Rate [m3/s], 2.83537
!<Controller:MechanicalVentilation>,Name,Availability Schedule Name,Demand Controlled Ventilation {Yes/No},System Outdoor Air Method,Zone Maximum Outdoor Air Fraction,Number of Zones,Zone Name,DSOA Name,DSZAD Name
 Controller:MechanicalVentilation,CONTROLLER MECHANICAL VENTILATION 1,SYS_3_PSZ ALL_ST=OFFICE ENCLOSED <= 25 M2_FL=BUILDING STORY 1_SCH=A OCC SCH,No,ZoneSum,1.00,1,ALL_ST=OFFICE ENCLOSED <= 25 M2_FL=BUILDING STORY 1_SCH=A,SPACE FUNCTION OFFICE ENCLOSED <= 25 M2 VENTILATION,ALL_ST=OFFICE ENCLOSED <= 25 M2_FL=BUILDING STORY 1_SCH=A DESIGN SPEC ZONE AIR DIST
 Controller:MechanicalVentilation,CONTROLLER MECHANICAL VENTILATION 3,SYS_4_PSZ_ALL_ST=WAREHOUSE STORAGE AREA MEDIUM TO BULKY PALLETIZED ITEMS_FL=BUILDING STORY 1_SCH=A OCC SCH,No,ZoneSum,1.00,1,ALL_ST=WAREHOUSE STORAGE AREA MEDIUM TO BULKY PALLETIZED ITEMS_FL=BUILDING STORY 1_SCH=A,SPACE FUNCTION WAREHOUSE STORAGE AREA MEDIUM TO BULKY PALLETIZED ITEMS VENTILATION,ALL_ST=WAREHOUSE STORAGE AREA MEDIUM TO BULKY PALLETIZED ITEMS_FL=BUILDING STORY 1_SCH=A DESIGN SPEC ZONE AIR DIST
 Controller:MechanicalVentilation,CONTROLLER MECHANICAL VENTILATION 2,SYS_4_PSZ_ALL_ST=WAREHOUSE STORAGE AREA SMALL HAND-CARRIED ITEMS(4)_FL=BUILDING STORY 1_SCH=A OCC SCH,No,ZoneSum,1.00,1,ALL_ST=WAREHOUSE STORAGE AREA SMALL HAND-CARRIED ITEMS(4)_FL=BUILDING STORY 1_SCH=A,SPACE FUNCTION WAREHOUSE STORAGE AREA SMALL HAND-CARRIED ITEMS(4) VENTILATION,ALL_ST=WAREHOUSE STORAGE AREA SMALL HAND-CARRIED ITEMS(4)_FL=BUILDING STORY 1_SCH=A DESIGN SPEC ZONE AIR DIST
 Component Sizing Information, HeatExchanger:AirToAir:SensibleAndLatent, SYS_3_PSZ ALL_ST=OFFICE ENCLOSED <= 25 M2_FL=BUILDING STORY 1_SCH=A ERV, Design Size Nominal Supply Air Flow Rate [m3/s], 9.98779E-002
 Component Sizing Information, Coil:Cooling:DX:SingleSpeed, COIL COOLING DX SINGLE SPEED 1 52KBTU/HR 14.0SEER, Design Size Rated Air Flow Rate [m3/s], 0.46328
 Component Sizing Information, Coil:Cooling:DX:SingleSpeed, COIL COOLING DX SINGLE SPEED 1 52KBTU/HR 14.0SEER, Design Size Gross Rated Total Cooling Capacity [W], 9046.07732
 Component Sizing Information, Coil:Cooling:DX:SingleSpeed, COIL COOLING DX SINGLE SPEED 1 52KBTU/HR 14.0SEER, Design Size Gross Rated Sensible Heat Ratio, 0.78169
! <DX Cooling Coil Standard Rating Information>, Component Type, Component Name, Standard Rating (Net) Cooling Capacity {W}, Standard Rated Net COP {W/W}, EER {Btu/W-h}, SEER {Btu/W-h}, IEER {Btu/W-h}
 DX Cooling Coil Standard Rating Information, Coil:Cooling:DX:SingleSpeed, COIL COOLING DX SINGLE SPEED 1 52KBTU/HR 14.0SEER, 8685.6, 3.19, 10.88, 11.48, 10.89
 Component Sizing Information, Coil:Heating:Electric, COIL HEATING ELECTRIC 1, Design Size Nominal Capacity [W], 17225.11455
 Component Sizing Information, Fan:VariableVolume, FAN VARIABLE VOLUME 3, Design Size Maximum Flow Rate [m3/s], 0.46328
 Component Sizing Information, HeatExchanger:AirToAir:SensibleAndLatent, SYS_4_PSZ_ALL_ST=WAREHOUSE STORAGE AREA MEDIUM TO BULKY PALLETIZED ITEMS_FL=BUILDING STORY 1_SCH=A ERV, Design Size Nominal Supply Air Flow Rate [m3/s], 0.97684
 Component Sizing Information, Coil:Cooling:DX:SingleSpeed, COIL COOLING DX SINGLE SPEED 3 649KBTU/HR 8.39EER, Design Size Rated Air Flow Rate [m3/s], 6.33147
 Component Sizing Information, Coil:Cooling:DX:SingleSpeed, COIL COOLING DX SINGLE SPEED 3 649KBTU/HR 8.39EER, Design Size Gross Rated Total Cooling Capacity [W], 117293.37989
 Component Sizing Information, Coil:Cooling:DX:SingleSpeed, COIL COOLING DX SINGLE SPEED 3 649KBTU/HR 8.39EER, Design Size Gross Rated Sensible Heat Ratio, 0.80052
 DX Cooling Coil Standard Rating Information, Coil:Cooling:DX:SingleSpeed, COIL COOLING DX SINGLE SPEED 3 649KBTU/HR 8.39EER, 112368.8, 2.75, 9.39, 9.92, 9.48
 Component Sizing Information, Coil:Heating:Electric, COIL HEATING ELECTRIC 3, Design Size Nominal Capacity [W], 215243.42024
 Component Sizing Information, Fan:VariableVolume, FAN VARIABLE VOLUME 1, Design Size Maximum Flow Rate [m3/s], 6.33147
 Component Sizing Information, HeatExchanger:AirToAir:SensibleAndLatent, SYS_4_PSZ_ALL_ST=WAREHOUSE STORAGE AREA SMALL HAND-CARRIED ITEMS(4)_FL=BUILDING STORY 1_SCH=A ERV, Design Size Nominal Supply Air Flow Rate [m3/s], 0.42471
 Component Sizing Information, Coil:Cooling:DX:SingleSpeed, COIL COOLING DX SINGLE SPEED 2 304KBTU/HR 8.39EER, Design Size Rated Air Flow Rate [m3/s], 2.83537
 Component Sizing Information, Coil:Cooling:DX:SingleSpeed, COIL COOLING DX SINGLE SPEED 2 304KBTU/HR 8.39EER, Design Size Gross Rated Total Cooling Capacity [W], 52414.77142
 Component Sizing Information, Coil:Cooling:DX:SingleSpeed, COIL COOLING DX SINGLE SPEED 2 304KBTU/HR 8.39EER, Design Size Gross Rated Sensible Heat Ratio, 0.80022
 DX Cooling Coil Standard Rating Information, Coil:Cooling:DX:SingleSpeed, COIL COOLING DX SINGLE SPEED 2 304KBTU/HR 8.39EER, 50209.5, 2.58, 8.81, 9.31, 8.95
 Component Sizing Information, Coil:Heating:Electric, COIL HEATING ELECTRIC 2, Design Size Nominal Capacity [W], 95082.14557
 Component Sizing Information, Fan:VariableVolume, FAN VARIABLE VOLUME 2, Design Size Maximum Flow Rate [m3/s], 2.83537
 Component Sizing Information, Coil:WaterHeating:AirToWaterHeatPump:Pumped, COIL WATER HEATING AIR TO WATER HEAT PUMP 1, Design Size Rated Evaporator Air Flow Rate [m3/s], 0.27448
 Component Sizing Information, Coil:WaterHeating:AirToWaterHeatPump:Pumped, COIL WATER HEATING AIR TO WATER HEAT PUMP 1, Design Size Rated Condenser Water Flow Rate [m3/s], 2.44603E-004
 Component Sizing Information, Fan:OnOff, FAN ON OFF 1, Design Size Maximum Flow Rate [m3/s], 0.27448
Heat Pump Water Heater Information,WaterHeater:HeatPump:PumpedCondenser,28GAL ELECTRICITY WATER HEATER - 19KBTU/HR 1.0 THERM EFF ASHPWH,0.1043,4469.3,2.674,2.2144,3491
 Component Sizing Information, WaterHeater:HeatPump:PumpedCondenser, 28GAL ELECTRICITY WATER HEATER - 19KBTU/HR 1.0 THERM EFF ASHPWH, Condenser water flow rate [m3/s], 2.44603E-004
 Component Sizing Information, WaterHeater:HeatPump:PumpedCondenser, 28GAL ELECTRICITY WATER HEATER - 19KBTU/HR 1.0 THERM EFF ASHPWH, Evaporator air flow rate [m3/s], 0.27448
 Component Sizing Information, PlantLoop, MAIN SERVICE WATER LOOP, Maximum Loop Flow Rate [m3/s], 2.63466E-005
 Component Sizing Information, PlantLoop, MAIN SERVICE WATER LOOP, Plant Loop Volume [m3], 3.16159E-003
 Component Sizing Information, Pump:ConstantSpeed, SERVICE WATER LOOP PUMP, Design Flow Rate [m3/s], 2.63466E-005
 Component Sizing Information, Pump:ConstantSpeed, SERVICE WATER LOOP PUMP, Design Power Consumption [W], 4.47374E-002
 Component Sizing Information, WaterHeater:Mixed, 28GAL ELECTRICITY WATER HEATER - 19KBTU/HR 1.0 THERM EFF, Use Side Design Flow Rate [m3/s], 2.63466E-005
! <Environment>,Environment Name,Environment Type, Start Date, End Date, Start DayOfWeek, Duration {#days}, Source:Start DayOfWeek,  Use Daylight Saving, Use Holidays, Apply Weekend Holiday Rule,  Use Rain Values, Use Snow Values
! <Environment:Special Days>, Special Day Name, Special Day Type, Source, Start Date, Duration {#days}
! <Environment:Daylight Saving>, Daylight Saving Indicator, Source, Start Date, End Date
! <Environment:WarmupDays>, NumberofWarmupDays
Environment,RUN PERIOD 1,WeatherFileRunPeriod,01/01,12/31,Sunday,365,Use RunPeriod Specified Day,No,No,No,Yes,Yes
Environment:Daylight Saving,No,RunPeriod Object
Environment:WarmupDays,  6
! <Tabular Report>,Style,Unit Conversion
Tabular Report,HTML,None
! <Warmup Convergence Information>,Zone Name,Environment Type/Name,Average Warmup Temperature Difference {deltaC},Std Dev Warmup Temperature Difference {deltaC},Max Temperature Pass/Fail Convergence,Min Temperature Pass/Fail Convergence,Average Warmup Load Difference {W},Std Dev Warmup Load Difference {W},Heating Load Pass/Fail Convergence,Cooling Load Pass/Fail Convergence
 Warmup Convergence Information,ALL_ST=OFFICE ENCLOSED <= 25 M2_FL=BUILDING STORY 1_SCH=A,RunPeriod: RUN PERIOD 1,6.0226826644E-002,0.1071328320,Pass,Pass,4.4344068257E-002,0.1523622413,Pass,Pass
 Warmup Convergence Information,ALL_ST=WAREHOUSE STORAGE AREA MEDIUM TO BULKY PALLETIZED ITEMS_FL=BUILDING STORY 1_SCH=A,RunPeriod: RUN PERIOD 1,1.9737298216E-016,8.1378965307E-016,Pass,Pass,2.6294772183E-002,2.5794302562E-002,Pass,Pass
 Warmup Convergence Information,ALL_ST=WAREHOUSE STORAGE AREA SMALL HAND-CARRIED ITEMS(4)_FL=BUILDING STORY 1_SCH=A,RunPeriod: RUN PERIOD 1,6.0361274763E-004,3.1931574602E-003,Pass,Pass,9.1653931723E-002,0.2443073113,Pass,Pass
! <Program Control Information:Threads/Parallel Sims>, Threading Supported,Maximum Number of Threads, Env Set Threads (OMP_NUM_THREADS), EP Env Set Threads (EP_OMP_NUM_THREADS), IDF Set Threads, Number of Threads Used (Interior Radiant Exchange), Number Nominal Surfaces, Number Parallel Sims
Program Control:Threads/Parallel Sims, No,1, N/A, N/A, N/A, N/A, N/A, N/A
End of Data
