Program Version,EnergyPlus, Version 8.9.0-eba93e8e1b, YMD=2019.08.13 17:25
! This file shows details about the branches, nodes, and other
! elements of the flow connections.
! This file is intended for use in "debugging" potential problems
! that may also be detected by the program, but may be more easily
! identified by "eye".
! This file is also intended to support software which draws a
! schematic diagram of the HVAC system.
! ===============================================================
! #Nodes,<Number of Unique Nodes>
 #Nodes,95
! <Node>,<NodeNumber>,<Node Name>,<Node Fluid Type>,<# Times Node Referenced After Definition>
 Node,1,NODE 8,Air,3
 Node,2,NODE 74,Air,3
 Node,3,NODE 73,Air,3
 Node,4,NODE 30,Air,3
 Node,5,NODE 70,Air,3
 Node,6,NODE 76,Air,2
 Node,7,NODE 69,Air,3
 Node,8,NODE 75,Air,2
 Node,9,NODE 19,Air,3
 Node,10,NODE 72,Air,3
 Node,11,NODE 71,Air,3
 Node,12,NODE 3,Air,11
 Node,13,NODE 5,Air,3
 Node,14,NODE 27,Air,11
 Node,15,NODE 28,Air,3
 Node,16,NODE 16,Air,11
 Node,17,NODE 17,Air,3
 Node,18,NODE 2,Air,4
 Node,19,NODE 13,Air,8
 Node,20,NODE 12,Air,6
 Node,21,NODE 67,Air,7
 Node,22,NODE 26,Air,4
 Node,23,NODE 35,Air,8
 Node,24,NODE 34,Air,6
 Node,25,NODE 57,Air,7
 Node,26,NODE 15,Air,4
 Node,27,NODE 24,Air,8
 Node,28,NODE 23,Air,6
 Node,29,NODE 65,Air,7
 Node,30,NODE 37,Water,2
 Node,31,NODE 43,Water,1
 Node,32,NODE 39,Water,2
 Node,33,NODE 44,Water,2
 Node,34,NODE 45,Water,1
 Node,35,NODE 46,Water,1
 Node,36,NODE 48,Water,1
 Node,37,NODE 38,Water,4
 Node,38,NODE 40,Water,2
 Node,39,NODE 49,Water,1
 Node,40,NODE 42,Water,1
 Node,41,NODE 47,Water,1
 Node,42,NODE 51,Water,1
 Node,43,NODE 52,Water,1
 Node,44,NODE 53,Water,1
 Node,45,NODE 54,Water,1
 Node,46,NODE 55,Water,1
 Node,47,NODE 56,Water,1
 Node,48,MAIN SERVICE WATER LOOP DEMAND BYPASS PIPE INLET NODE,Water,1
 Node,49,MAIN SERVICE WATER LOOP DEMAND BYPASS PIPE OUTLET NODE,Water,1
 Node,50,NODE 50,Water,1
 Node,51,NODE 41,Water,2
 Node,52,NODE 1,Air,0
 Node,53,NODE 14,Air,1
 Node,54,NODE 7,Air,0
 Node,55,NODE 36,Air,1
 Node,56,NODE 4,Air,0
 Node,57,NODE 25,Air,1
 Node,58,NODE 6,Air,2
 Node,59,NODE 29,Air,2
 Node,60,NODE 18,Air,2
 Node,61,28GAL ELECTRICITY WATER HEATER - 19KBTU/HR 1.0 THERM EFF ASHPWH TANK OUTLET - CONDENSER INLET,Water,2
 Node,62,28GAL ELECTRICITY WATER HEATER - 19KBTU/HR 1.0 THERM EFF ASHPWH CONDENSER OUTLET - TANK INLET,Water,2
 Node,63,28GAL ELECTRICITY WATER HEATER - 19KBTU/HR 1.0 THERM EFF ASHPWH MIXER OUTLET - EVAP INLET,Air,1
 Node,64,28GAL ELECTRICITY WATER HEATER - 19KBTU/HR 1.0 THERM EFF ASHPWH EVAP OUTLET - FAN INLET,Air,1
 Node,65,ALL_ST=OFFICE ENCLOSED <= 25 M2_FL=BUILDING STORY 1_SCH=A ERV DOAS OA NODE,Air,2
 Node,66,ALL_ST=WAREHOUSE STORAGE AREA MEDIUM TO BULKY PALLETIZED ITEMS_FL=BUILDING STORY 1_SCH=A ERV DOAS OA NODE,Air,2
 Node,67,ALL_ST=WAREHOUSE STORAGE AREA SMALL HAND-CARRIED ITEMS(4)_FL=BUILDING STORY 1_SCH=A ERV DOAS OA NODE,Air,2
 Node,68,NODE 9,Air,3
 Node,69,NODE 31,Air,3
 Node,70,NODE 20,Air,3
 Node,71,MODEL OUTDOOR AIR NODE,Air,0
 Node,72,ALL_ST=OFFICE ENCLOSED <= 25 M2_FL=BUILDING STORY 1_SCH=A ERV DOAS SUPPLY FAN INLET NODE,Air,1
 Node,73,ALL_ST=OFFICE ENCLOSED <= 25 M2_FL=BUILDING STORY 1_SCH=A ERV DOAS EXHAUST FAN INLET NODE,Air,1
 Node,74,ALL_ST=OFFICE ENCLOSED <= 25 M2_FL=BUILDING STORY 1_SCH=A ERV DOAS EXHAUST FAN OUTLET NODE,Air,1
 Node,75,28GAL ELECTRICITY WATER HEATER - 19KBTU/HR 1.0 THERM EFF ASHPWH FAN OUTLET - SPLITTER INLET,Air,1
 Node,76,ALL_ST=WAREHOUSE STORAGE AREA MEDIUM TO BULKY PALLETIZED ITEMS_FL=BUILDING STORY 1_SCH=A ERV DOAS SUPPLY FAN INLET NODE,Air,1
 Node,77,ALL_ST=WAREHOUSE STORAGE AREA MEDIUM TO BULKY PALLETIZED ITEMS_FL=BUILDING STORY 1_SCH=A ERV DOAS EXHAUST FAN INLET NODE,Air,1
 Node,78,ALL_ST=WAREHOUSE STORAGE AREA MEDIUM TO BULKY PALLETIZED ITEMS_FL=BUILDING STORY 1_SCH=A ERV DOAS EXHAUST FAN OUTLET NODE,Air,1
 Node,79,ALL_ST=WAREHOUSE STORAGE AREA SMALL HAND-CARRIED ITEMS(4)_FL=BUILDING STORY 1_SCH=A ERV DOAS SUPPLY FAN INLET NODE,Air,1
 Node,80,ALL_ST=WAREHOUSE STORAGE AREA SMALL HAND-CARRIED ITEMS(4)_FL=BUILDING STORY 1_SCH=A ERV DOAS EXHAUST FAN INLET NODE,Air,1
 Node,81,ALL_ST=WAREHOUSE STORAGE AREA SMALL HAND-CARRIED ITEMS(4)_FL=BUILDING STORY 1_SCH=A ERV DOAS EXHAUST FAN OUTLET NODE,Air,1
 Node,82,28GAL ELECTRICITY WATER HEATER - 19KBTU/HR 1.0 THERM EFF ASHPWH OUTDOOR AIR,Air,1
 Node,83,28GAL ELECTRICITY WATER HEATER - 19KBTU/HR 1.0 THERM EFF ASHPWH EXHAUST AIR,Air,0
 Node,84,NODE 58,Air,2
 Node,85,NODE 60,Air,2
 Node,86,NODE 62,Air,2
 Node,87,NODE 68,Air,1
 Node,88,NODE 64,Air,1
 Node,89,NODE 66,Air,1
 Node,90,NODE 59,Air,2
 Node,91,NODE 10,Air,0
 Node,92,NODE 61,Air,2
 Node,93,NODE 32,Air,0
 Node,94,NODE 63,Air,2
 Node,95,NODE 21,Air,0
! ===============================================================
! Suspicious nodes have 0 references.  It is normal for some nodes, however.
! Listing nodes with 0 references (culled from previous list):
! <Suspicious Node>,<NodeNumber>,<Node Name>,<Node Fluid Type>,<# Times Node Referenced After Definition>
 Suspicious Node,52,NODE 1,Air,0
 Suspicious Node,54,NODE 7,Air,0
 Suspicious Node,56,NODE 4,Air,0
 Suspicious Node,71,MODEL OUTDOOR AIR NODE,Air,0
 Suspicious Node,83,28GAL ELECTRICITY WATER HEATER - 19KBTU/HR 1.0 THERM EFF ASHPWH EXHAUST AIR,Air,0
 Suspicious Node,91,NODE 10,Air,0
 Suspicious Node,93,NODE 32,Air,0
 Suspicious Node,95,NODE 21,Air,0
! ===============================================================
! <#Branch Lists>,<Number of Branch Lists>
 #Branch Lists,5
! <Branch List>,<Branch List Count>,<Branch List Name>,<Loop Name>,<Loop Type>,<Number of Branches>
! <Branch>,<Branch Count>,<Branch Name>,<Loop Name>,<Loop Type>,<Branch Inlet Node Name>,<Branch Outlet Node Name>
 Branch List,1,SYS_3_PSZ ALL_ST=OFFICE ENCLOSED <= 25 M2_FL=BUILDING STORY 1_SCH=A SUPPLY BRANCHES,SYS_3_PSZ ALL_ST=OFFICE ENCLOSED <= 25 M2_FL=BUILDING STORY 1_SCH=A,Air,1
   Branch,1,SYS_3_PSZ ALL_ST=OFFICE ENCLOSED <= 25 M2_FL=BUILDING STORY 1_SCH=A MAIN BRANCH,SYS_3_PSZ ALL_ST=OFFICE ENCLOSED <= 25 M2_FL=BUILDING STORY 1_SCH=A,Air,NODE 2,NODE 3
 Branch List,2,SYS_4_PSZ_ALL_ST=WAREHOUSE STORAGE AREA MEDIUM TO BULKY PALLETIZED ITEMS_FL=BUILDING STORY 1_SCH=A SUPPLY BRANCHES,SYS_4_PSZ_ALL_ST=WAREHOUSE STORAGE AREA MEDIUM TO BULKY PALLETIZED ITEMS_FL=BUILDING STORY 1_SCH=A,Air,1
   Branch,1,SYS_4_PSZ_ALL_ST=WAREHOUSE STORAGE AREA MEDIUM TO BULKY PALLETIZED ITEMS_FL=BUILDING STORY 1_SCH=A MAIN BRANCH,SYS_4_PSZ_ALL_ST=WAREHOUSE STORAGE AREA MEDIUM TO BULKY PALLETIZED ITEMS_FL=BUILDING STORY 1_SCH=A,Air,NODE 26,NODE 27
 Branch List,3,SYS_4_PSZ_ALL_ST=WAREHOUSE STORAGE AREA SMALL HAND-CARRIED ITEMS(4)_FL=BUILDING STORY 1_SCH=A SUPPLY BRANCHES,SYS_4_PSZ_ALL_ST=WAREHOUSE STORAGE AREA SMALL HAND-CARRIED ITEMS(4)_FL=BUILDING STORY 1_SCH=A,Air,1
   Branch,1,SYS_4_PSZ_ALL_ST=WAREHOUSE STORAGE AREA SMALL HAND-CARRIED ITEMS(4)_FL=BUILDING STORY 1_SCH=A MAIN BRANCH,SYS_4_PSZ_ALL_ST=WAREHOUSE STORAGE AREA SMALL HAND-CARRIED ITEMS(4)_FL=BUILDING STORY 1_SCH=A,Air,NODE 15,NODE 16
 Branch List,4,MAIN SERVICE WATER LOOP SUPPLY BRANCHES,MAIN SERVICE WATER LOOP,Plant Supply,4
   Branch,1,MAIN SERVICE WATER LOOP SUPPLY INLET BRANCH,MAIN SERVICE WATER LOOP,Plant Supply,NODE 37,NODE 43
   Branch,2,MAIN SERVICE WATER LOOP SUPPLY BRANCH 1,MAIN SERVICE WATER LOOP,Plant Supply,NODE 39,NODE 44
   Branch,3,MAIN SERVICE WATER LOOP SUPPLY BRANCH 2,MAIN SERVICE WATER LOOP,Plant Supply,NODE 45,NODE 46
   Branch,4,MAIN SERVICE WATER LOOP SUPPLY OUTLET BRANCH,MAIN SERVICE WATER LOOP,Plant Supply,NODE 48,NODE 38
 Branch List,5,MAIN SERVICE WATER LOOP DEMAND BRANCHES,MAIN SERVICE WATER LOOP,Plant Demand,7
   Branch,1,MAIN SERVICE WATER LOOP DEMAND INLET BRANCH,MAIN SERVICE WATER LOOP,Plant Demand,NODE 40,NODE 49
   Branch,2,MAIN SERVICE WATER LOOP DEMAND BRANCH 1,MAIN SERVICE WATER LOOP,Plant Demand,NODE 42,NODE 47
   Branch,3,MAIN SERVICE WATER LOOP DEMAND BRANCH 2,MAIN SERVICE WATER LOOP,Plant Demand,NODE 51,NODE 52
   Branch,4,MAIN SERVICE WATER LOOP DEMAND BRANCH 3,MAIN SERVICE WATER LOOP,Plant Demand,NODE 53,NODE 54
   Branch,5,MAIN SERVICE WATER LOOP DEMAND BRANCH 4,MAIN SERVICE WATER LOOP,Plant Demand,NODE 55,NODE 56
   Branch,6,MAIN SERVICE WATER LOOP DEMAND BYPASS BRANCH,MAIN SERVICE WATER LOOP,Plant Demand,MAIN SERVICE WATER LOOP DEMAND BYPASS PIPE INLET NODE,MAIN SERVICE WATER LOOP DEMAND BYPASS PIPE OUTLET NODE
   Branch,7,MAIN SERVICE WATER LOOP DEMAND OUTLET BRANCH,MAIN SERVICE WATER LOOP,Plant Demand,NODE 50,NODE 41
! ===============================================================
! <#Supply Air Paths>,<Number of Supply Air Paths>
 #Supply Air Paths,3
! <Supply Air Path>,<Supply Air Path Count>,<Supply Air Path Name>,<AirLoopHVAC Name>
! <#Components on Supply Air Path>,<Number of Components>
! <Supply Air Path Component>,<Component Count>,<Component Type>,<Component Name>,<AirLoopHVAC Name>
! <#Outlet Nodes on Supply Air Path Component>,<Number of Nodes>
! <Supply Air Path Component Nodes>,<Node Count>,<Component Type>,<Component Name>,<Inlet Node Name>,<Outlet Node Name>,<AirLoopHVAC Name>
 Supply Air Path,1,SYS_3_PSZ ALL_ST=OFFICE ENCLOSED <= 25 M2_FL=BUILDING STORY 1_SCH=A NODE 5 SUPPLY PATH,SYS_3_PSZ ALL_ST=OFFICE ENCLOSED <= 25 M2_FL=BUILDING STORY 1_SCH=A
   #Components on Supply Air Path,1
   Supply Air Path Component,1,AIRLOOPHVAC:ZONESPLITTER,AIR LOOP HVAC ZONE SPLITTER 1,SYS_3_PSZ ALL_ST=OFFICE ENCLOSED <= 25 M2_FL=BUILDING STORY 1_SCH=A
     #Outlet Nodes on Supply Air Path Component,1
     Supply Air Path Component Nodes,1,AIRLOOPHVAC:ZONESPLITTER,AIR LOOP HVAC ZONE SPLITTER 1,NODE 5,NODE 68,SYS_3_PSZ ALL_ST=OFFICE ENCLOSED <= 25 M2_FL=BUILDING STORY 1_SCH=A
! <#Nodes on Supply Air Path>,<Number of Nodes>
! <Supply Air Path Node>,<Node Type>,<Node Count>,<Node Name>,<AirLoopHVAC Name>
#Nodes on Supply Air Path,2
   Supply Air Path Node,Inlet Node,1,NODE 5,SYS_3_PSZ ALL_ST=OFFICE ENCLOSED <= 25 M2_FL=BUILDING STORY 1_SCH=A
   Supply Air Path Node,Outlet Node,2,NODE 68,SYS_3_PSZ ALL_ST=OFFICE ENCLOSED <= 25 M2_FL=BUILDING STORY 1_SCH=A
 Supply Air Path,2,SYS_4_PSZ_ALL_ST=WAREHOUSE STORAGE AREA MEDIUM TO BULKY PALLETIZED ITEMS_FL=BUILDING STORY 1_SCH=A NODE 28 SUPPLY PATH,SYS_4_PSZ_ALL_ST=WAREHOUSE STORAGE AREA MEDIUM TO BULKY PALLETIZED ITEMS_FL=BUILDING STORY 1_SCH=A
   #Components on Supply Air Path,1
   Supply Air Path Component,1,AIRLOOPHVAC:ZONESPLITTER,AIR LOOP HVAC ZONE SPLITTER 3,SYS_4_PSZ_ALL_ST=WAREHOUSE STORAGE AREA MEDIUM TO BULKY PALLETIZED ITEMS_FL=BUILDING STORY 1_SCH=A
     #Outlet Nodes on Supply Air Path Component,1
     Supply Air Path Component Nodes,1,AIRLOOPHVAC:ZONESPLITTER,AIR LOOP HVAC ZONE SPLITTER 3,NODE 28,NODE 64,SYS_4_PSZ_ALL_ST=WAREHOUSE STORAGE AREA MEDIUM TO BULKY PALLETIZED ITEMS_FL=BUILDING STORY 1_SCH=A
! <#Nodes on Supply Air Path>,<Number of Nodes>
! <Supply Air Path Node>,<Node Type>,<Node Count>,<Node Name>,<AirLoopHVAC Name>
#Nodes on Supply Air Path,2
   Supply Air Path Node,Inlet Node,1,NODE 28,SYS_4_PSZ_ALL_ST=WAREHOUSE STORAGE AREA MEDIUM TO BULKY PALLETIZED ITEMS_FL=BUILDING STORY 1_SCH=A
   Supply Air Path Node,Outlet Node,2,NODE 64,SYS_4_PSZ_ALL_ST=WAREHOUSE STORAGE AREA MEDIUM TO BULKY PALLETIZED ITEMS_FL=BUILDING STORY 1_SCH=A
 Supply Air Path,3,SYS_4_PSZ_ALL_ST=WAREHOUSE STORAGE AREA SMALL HAND-CARRIED ITEMS(4)_FL=BUILDING STORY 1_SCH=A NODE 17 SUPPLY PATH,SYS_4_PSZ_ALL_ST=WAREHOUSE STORAGE AREA SMALL HAND-CARRIED ITEMS(4)_FL=BUILDING STORY 1_SCH=A
   #Components on Supply Air Path,1
   Supply Air Path Component,1,AIRLOOPHVAC:ZONESPLITTER,AIR LOOP HVAC ZONE SPLITTER 2,SYS_4_PSZ_ALL_ST=WAREHOUSE STORAGE AREA SMALL HAND-CARRIED ITEMS(4)_FL=BUILDING STORY 1_SCH=A
     #Outlet Nodes on Supply Air Path Component,1
     Supply Air Path Component Nodes,1,AIRLOOPHVAC:ZONESPLITTER,AIR LOOP HVAC ZONE SPLITTER 2,NODE 17,NODE 66,SYS_4_PSZ_ALL_ST=WAREHOUSE STORAGE AREA SMALL HAND-CARRIED ITEMS(4)_FL=BUILDING STORY 1_SCH=A
! <#Nodes on Supply Air Path>,<Number of Nodes>
! <Supply Air Path Node>,<Node Type>,<Node Count>,<Node Name>,<AirLoopHVAC Name>
#Nodes on Supply Air Path,2
   Supply Air Path Node,Inlet Node,1,NODE 17,SYS_4_PSZ_ALL_ST=WAREHOUSE STORAGE AREA SMALL HAND-CARRIED ITEMS(4)_FL=BUILDING STORY 1_SCH=A
   Supply Air Path Node,Outlet Node,2,NODE 66,SYS_4_PSZ_ALL_ST=WAREHOUSE STORAGE AREA SMALL HAND-CARRIED ITEMS(4)_FL=BUILDING STORY 1_SCH=A
! ===============================================================
! <#Return Air Paths>,<Number of Return Air Paths>
 #Return Air Paths,3
! <Return Air Path>,<Return Air Path Count>,<Return Air Path Name>,<AirLoopHVAC Name>
! <#Components on Return Air Path>,<Number of Components>
! <Return Air Path Component>,<Component Count>,<Component Type>,<Component Name>,<AirLoopHVAC Name>
! <#Inlet Nodes on Return Air Path Component>,<Number of Nodes>
! <Return Air Path Component Nodes>,<Node Count>,<Component Type>,<Component Name>,<Inlet Node Name>,<Outlet Node Name>,<AirLoopHVAC Name>
 Return Air Path,1,SYS_3_PSZ ALL_ST=OFFICE ENCLOSED <= 25 M2_FL=BUILDING STORY 1_SCH=A RETURN PATH,SYS_3_PSZ ALL_ST=OFFICE ENCLOSED <= 25 M2_FL=BUILDING STORY 1_SCH=A
   #Components on Return Air Path,1
   Return Air Path Component,1,AIRLOOPHVAC:ZONEMIXER,AIR LOOP HVAC ZONE MIXER 1,SYS_3_PSZ ALL_ST=OFFICE ENCLOSED <= 25 M2_FL=BUILDING STORY 1_SCH=A
     #Inlet Nodes on Return Air Path Component,1
     Return Air Path Component Nodes,1,AIRLOOPHVAC:ZONEMIXER,AIR LOOP HVAC ZONE MIXER 1,NODE 14,NODE 6,SYS_3_PSZ ALL_ST=OFFICE ENCLOSED <= 25 M2_FL=BUILDING STORY 1_SCH=A
! <#Nodes on Return Air Path>,<Number of Nodes>
! <Return Air Path Node>,<Node Type>,<Node Count>,<Node Name>,<AirLoopHVAC Name>
   #Nodes on Return Air Path,2
   Return Air Path Node,Outlet Node,1,NODE 6,SYS_3_PSZ ALL_ST=OFFICE ENCLOSED <= 25 M2_FL=BUILDING STORY 1_SCH=A
   Return Air Path Node,Inlet Node,2,NODE 14,SYS_3_PSZ ALL_ST=OFFICE ENCLOSED <= 25 M2_FL=BUILDING STORY 1_SCH=A
 Return Air Path,2,SYS_4_PSZ_ALL_ST=WAREHOUSE STORAGE AREA MEDIUM TO BULKY PALLETIZED ITEMS_FL=BUILDING STORY 1_SCH=A RETURN PATH,SYS_4_PSZ_ALL_ST=WAREHOUSE STORAGE AREA MEDIUM TO BULKY PALLETIZED ITEMS_FL=BUILDING STORY 1_SCH=A
   #Components on Return Air Path,1
   Return Air Path Component,1,AIRLOOPHVAC:ZONEMIXER,AIR LOOP HVAC ZONE MIXER 3,SYS_4_PSZ_ALL_ST=WAREHOUSE STORAGE AREA MEDIUM TO BULKY PALLETIZED ITEMS_FL=BUILDING STORY 1_SCH=A
     #Inlet Nodes on Return Air Path Component,1
     Return Air Path Component Nodes,1,AIRLOOPHVAC:ZONEMIXER,AIR LOOP HVAC ZONE MIXER 3,NODE 36,NODE 29,SYS_4_PSZ_ALL_ST=WAREHOUSE STORAGE AREA MEDIUM TO BULKY PALLETIZED ITEMS_FL=BUILDING STORY 1_SCH=A
! <#Nodes on Return Air Path>,<Number of Nodes>
! <Return Air Path Node>,<Node Type>,<Node Count>,<Node Name>,<AirLoopHVAC Name>
   #Nodes on Return Air Path,2
   Return Air Path Node,Outlet Node,1,NODE 29,SYS_4_PSZ_ALL_ST=WAREHOUSE STORAGE AREA MEDIUM TO BULKY PALLETIZED ITEMS_FL=BUILDING STORY 1_SCH=A
   Return Air Path Node,Inlet Node,2,NODE 36,SYS_4_PSZ_ALL_ST=WAREHOUSE STORAGE AREA MEDIUM TO BULKY PALLETIZED ITEMS_FL=BUILDING STORY 1_SCH=A
 Return Air Path,3,SYS_4_PSZ_ALL_ST=WAREHOUSE STORAGE AREA SMALL HAND-CARRIED ITEMS(4)_FL=BUILDING STORY 1_SCH=A RETURN PATH,SYS_4_PSZ_ALL_ST=WAREHOUSE STORAGE AREA SMALL HAND-CARRIED ITEMS(4)_FL=BUILDING STORY 1_SCH=A
   #Components on Return Air Path,1
   Return Air Path Component,1,AIRLOOPHVAC:ZONEMIXER,AIR LOOP HVAC ZONE MIXER 2,SYS_4_PSZ_ALL_ST=WAREHOUSE STORAGE AREA SMALL HAND-CARRIED ITEMS(4)_FL=BUILDING STORY 1_SCH=A
     #Inlet Nodes on Return Air Path Component,1
     Return Air Path Component Nodes,1,AIRLOOPHVAC:ZONEMIXER,AIR LOOP HVAC ZONE MIXER 2,NODE 25,NODE 18,SYS_4_PSZ_ALL_ST=WAREHOUSE STORAGE AREA SMALL HAND-CARRIED ITEMS(4)_FL=BUILDING STORY 1_SCH=A
! <#Nodes on Return Air Path>,<Number of Nodes>
! <Return Air Path Node>,<Node Type>,<Node Count>,<Node Name>,<AirLoopHVAC Name>
   #Nodes on Return Air Path,2
   Return Air Path Node,Outlet Node,1,NODE 18,SYS_4_PSZ_ALL_ST=WAREHOUSE STORAGE AREA SMALL HAND-CARRIED ITEMS(4)_FL=BUILDING STORY 1_SCH=A
   Return Air Path Node,Inlet Node,2,NODE 25,SYS_4_PSZ_ALL_ST=WAREHOUSE STORAGE AREA SMALL HAND-CARRIED ITEMS(4)_FL=BUILDING STORY 1_SCH=A
! ===============================================================
! #Outdoor Air Nodes,<Number of Outdoor Air Nodes>
 #Outdoor Air Nodes,8
! <Outdoor Air Node>,<NodeNumber>,<Node Name>
 Outdoor Air Node,65,ALL_ST=OFFICE ENCLOSED <= 25 M2_FL=BUILDING STORY 1_SCH=A ERV DOAS OA NODE
 Outdoor Air Node,66,ALL_ST=WAREHOUSE STORAGE AREA MEDIUM TO BULKY PALLETIZED ITEMS_FL=BUILDING STORY 1_SCH=A ERV DOAS OA NODE
 Outdoor Air Node,67,ALL_ST=WAREHOUSE STORAGE AREA SMALL HAND-CARRIED ITEMS(4)_FL=BUILDING STORY 1_SCH=A ERV DOAS OA NODE
 Outdoor Air Node,68,NODE 9
 Outdoor Air Node,69,NODE 31
 Outdoor Air Node,70,NODE 20
 Outdoor Air Node,71,MODEL OUTDOOR AIR NODE
 Outdoor Air Node,82,28GAL ELECTRICITY WATER HEATER - 19KBTU/HR 1.0 THERM EFF ASHPWH OUTDOOR AIR
! ===============================================================
! <#Component Sets>,<Number of Component Sets>
 #Component Sets,48
! <Component Set>,<Component Set Count>,<Parent Object Type>,<Parent Object Name>,<Component Type>,<Component Name>,<Inlet Node ID>,<Outlet Node ID>,<Description>
 Component Set,1,BRANCH,SYS_3_PSZ ALL_ST=OFFICE ENCLOSED <= 25 M2_FL=BUILDING STORY 1_SCH=A MAIN BRANCH,AIRLOOPHVAC:OUTDOORAIRSYSTEM,AIR LOOP HVAC OUTDOOR AIR SYSTEM 1,NODE 2,NODE 13,Air Nodes
 Component Set,2,BRANCH,SYS_3_PSZ ALL_ST=OFFICE ENCLOSED <= 25 M2_FL=BUILDING STORY 1_SCH=A MAIN BRANCH,COILSYSTEM:COOLING:DX,COIL COOLING DX SINGLE SPEED 1 52KBTU/HR 14.0SEER COILSYSTEM,NODE 13,NODE 12,Air Nodes
 Component Set,3,BRANCH,SYS_3_PSZ ALL_ST=OFFICE ENCLOSED <= 25 M2_FL=BUILDING STORY 1_SCH=A MAIN BRANCH,COIL:HEATING:ELECTRIC,COIL HEATING ELECTRIC 1,NODE 12,NODE 67,Air Nodes
 Component Set,4,BRANCH,SYS_3_PSZ ALL_ST=OFFICE ENCLOSED <= 25 M2_FL=BUILDING STORY 1_SCH=A MAIN BRANCH,FAN:VARIABLEVOLUME,FAN VARIABLE VOLUME 3,NODE 67,NODE 3,Air Nodes
 Component Set,5,BRANCH,SYS_4_PSZ_ALL_ST=WAREHOUSE STORAGE AREA MEDIUM TO BULKY PALLETIZED ITEMS_FL=BUILDING STORY 1_SCH=A MAIN BRANCH,AIRLOOPHVAC:OUTDOORAIRSYSTEM,AIR LOOP HVAC OUTDOOR AIR SYSTEM 3,NODE 26,NODE 35,Air Nodes
 Component Set,6,BRANCH,SYS_4_PSZ_ALL_ST=WAREHOUSE STORAGE AREA MEDIUM TO BULKY PALLETIZED ITEMS_FL=BUILDING STORY 1_SCH=A MAIN BRANCH,COILSYSTEM:COOLING:DX,COIL COOLING DX SINGLE SPEED 3 649KBTU/HR 8.39EER COILSYSTEM,NODE 35,NODE 34,Air Nodes
 Component Set,7,BRANCH,SYS_4_PSZ_ALL_ST=WAREHOUSE STORAGE AREA MEDIUM TO BULKY PALLETIZED ITEMS_FL=BUILDING STORY 1_SCH=A MAIN BRANCH,COIL:HEATING:ELECTRIC,COIL HEATING ELECTRIC 3,NODE 34,NODE 57,Air Nodes
 Component Set,8,BRANCH,SYS_4_PSZ_ALL_ST=WAREHOUSE STORAGE AREA MEDIUM TO BULKY PALLETIZED ITEMS_FL=BUILDING STORY 1_SCH=A MAIN BRANCH,FAN:VARIABLEVOLUME,FAN VARIABLE VOLUME 1,NODE 57,NODE 27,Air Nodes
 Component Set,9,BRANCH,SYS_4_PSZ_ALL_ST=WAREHOUSE STORAGE AREA SMALL HAND-CARRIED ITEMS(4)_FL=BUILDING STORY 1_SCH=A MAIN BRANCH,AIRLOOPHVAC:OUTDOORAIRSYSTEM,AIR LOOP HVAC OUTDOOR AIR SYSTEM 2,NODE 15,NODE 24,Air Nodes
 Component Set,10,BRANCH,SYS_4_PSZ_ALL_ST=WAREHOUSE STORAGE AREA SMALL HAND-CARRIED ITEMS(4)_FL=BUILDING STORY 1_SCH=A MAIN BRANCH,COILSYSTEM:COOLING:DX,COIL COOLING DX SINGLE SPEED 2 304KBTU/HR 8.39EER COILSYSTEM,NODE 24,NODE 23,Air Nodes
 Component Set,11,BRANCH,SYS_4_PSZ_ALL_ST=WAREHOUSE STORAGE AREA SMALL HAND-CARRIED ITEMS(4)_FL=BUILDING STORY 1_SCH=A MAIN BRANCH,COIL:HEATING:ELECTRIC,COIL HEATING ELECTRIC 2,NODE 23,NODE 65,Air Nodes
 Component Set,12,BRANCH,SYS_4_PSZ_ALL_ST=WAREHOUSE STORAGE AREA SMALL HAND-CARRIED ITEMS(4)_FL=BUILDING STORY 1_SCH=A MAIN BRANCH,FAN:VARIABLEVOLUME,FAN VARIABLE VOLUME 2,NODE 65,NODE 16,Air Nodes
 Component Set,13,BRANCH,MAIN SERVICE WATER LOOP SUPPLY INLET BRANCH,PUMP:CONSTANTSPEED,SERVICE WATER LOOP PUMP,NODE 37,NODE 43,Water Nodes
 Component Set,14,BRANCH,MAIN SERVICE WATER LOOP SUPPLY BRANCH 1,WATERHEATER:HEATPUMP:PUMPEDCONDENSER,28GAL ELECTRICITY WATER HEATER - 19KBTU/HR 1.0 THERM EFF ASHPWH,NODE 39,NODE 44,Water Nodes
 Component Set,15,BRANCH,MAIN SERVICE WATER LOOP SUPPLY BRANCH 2,PIPE:ADIABATIC,PIPE ADIABATIC 1,NODE 45,NODE 46,Pipe Nodes
 Component Set,16,BRANCH,MAIN SERVICE WATER LOOP SUPPLY OUTLET BRANCH,PIPE:ADIABATIC,PIPE ADIABATIC 3,NODE 48,NODE 38,Pipe Nodes
 Component Set,17,BRANCH,MAIN SERVICE WATER LOOP DEMAND INLET BRANCH,PIPE:ADIABATIC,PIPE ADIABATIC 4,NODE 40,NODE 49,Pipe Nodes
 Component Set,18,BRANCH,MAIN SERVICE WATER LOOP DEMAND BRANCH 1,PIPE:ADIABATIC,PIPE ADIABATIC 2,NODE 42,NODE 47,Pipe Nodes
 Component Set,19,BRANCH,MAIN SERVICE WATER LOOP DEMAND BRANCH 2,WATERUSE:CONNECTIONS,WATER USE CONNECTIONS 1,NODE 51,NODE 52,DHW Nodes
 Component Set,20,BRANCH,MAIN SERVICE WATER LOOP DEMAND BRANCH 3,WATERUSE:CONNECTIONS,WATER USE CONNECTIONS 2,NODE 53,NODE 54,DHW Nodes
 Component Set,21,BRANCH,MAIN SERVICE WATER LOOP DEMAND BRANCH 4,WATERUSE:CONNECTIONS,WATER USE CONNECTIONS 3,NODE 55,NODE 56,DHW Nodes
 Component Set,22,BRANCH,MAIN SERVICE WATER LOOP DEMAND BYPASS BRANCH,PIPE:ADIABATIC,MAIN SERVICE WATER LOOP DEMAND BYPASS PIPE,MAIN SERVICE WATER LOOP DEMAND BYPASS PIPE INLET NODE,MAIN SERVICE WATER LOOP DEMAND BYPASS PIPE OUTLET NODE,Pipe Nodes
 Component Set,23,BRANCH,MAIN SERVICE WATER LOOP DEMAND OUTLET BRANCH,PIPE:ADIABATIC,PIPE ADIABATIC 5,NODE 50,NODE 41,Pipe Nodes
 Component Set,24,COILSYSTEM:COOLING:DX,COIL COOLING DX SINGLE SPEED 1 52KBTU/HR 14.0SEER COILSYSTEM,COIL:COOLING:DX:SINGLESPEED,COIL COOLING DX SINGLE SPEED 1 52KBTU/HR 14.0SEER,NODE 13,NODE 12,Air Nodes
 Component Set,25,COILSYSTEM:COOLING:DX,COIL COOLING DX SINGLE SPEED 3 649KBTU/HR 8.39EER COILSYSTEM,COIL:COOLING:DX:SINGLESPEED,COIL COOLING DX SINGLE SPEED 3 649KBTU/HR 8.39EER,NODE 35,NODE 34,Air Nodes
 Component Set,26,COILSYSTEM:COOLING:DX,COIL COOLING DX SINGLE SPEED 2 304KBTU/HR 8.39EER COILSYSTEM,COIL:COOLING:DX:SINGLESPEED,COIL COOLING DX SINGLE SPEED 2 304KBTU/HR 8.39EER,NODE 24,NODE 23,Air Nodes
 Component Set,27,WATERHEATER:HEATPUMP:PUMPEDCONDENSER,28GAL ELECTRICITY WATER HEATER - 19KBTU/HR 1.0 THERM EFF ASHPWH,COIL:WATERHEATING:AIRTOWATERHEATPUMP:PUMPED,COIL WATER HEATING AIR TO WATER HEAT PUMP 1,28GAL ELECTRICITY WATER HEATER - 19KBTU/HR 1.0 THERM EFF ASHPWH MIXER OUTLET - EVAP INLET,28GAL ELECTRICITY WATER HEATER - 19KBTU/HR 1.0 THERM EFF ASHPWH EVAP OUTLET - FAN INLET,Air Nodes
 Component Set,28,WATERHEATER:HEATPUMP:PUMPEDCONDENSER,28GAL ELECTRICITY WATER HEATER - 19KBTU/HR 1.0 THERM EFF ASHPWH,COIL:WATERHEATING:AIRTOWATERHEATPUMP:PUMPED,COIL WATER HEATING AIR TO WATER HEAT PUMP 1,28GAL ELECTRICITY WATER HEATER - 19KBTU/HR 1.0 THERM EFF ASHPWH TANK OUTLET - CONDENSER INLET,28GAL ELECTRICITY WATER HEATER - 19KBTU/HR 1.0 THERM EFF ASHPWH CONDENSER OUTLET - TANK INLET,HPWH To Coil
 Component Set,29,ZONEHVAC:ENERGYRECOVERYVENTILATOR,ALL_ST=OFFICE ENCLOSED <= 25 M2_FL=BUILDING STORY 1_SCH=A ERV DOAS,FAN:ONOFF,ALL_ST=OFFICE ENCLOSED <= 25 M2_FL=BUILDING STORY 1_SCH=A ERV SUP FAN,ALL_ST=OFFICE ENCLOSED <= 25 M2_FL=BUILDING STORY 1_SCH=A ERV DOAS SUPPLY FAN INLET NODE,NODE 74,Air Nodes
 Component Set,30,ZONEHVAC:ENERGYRECOVERYVENTILATOR,ALL_ST=OFFICE ENCLOSED <= 25 M2_FL=BUILDING STORY 1_SCH=A ERV DOAS,FAN:ONOFF,ALL_ST=OFFICE ENCLOSED <= 25 M2_FL=BUILDING STORY 1_SCH=A ERV EXH FAN,ALL_ST=OFFICE ENCLOSED <= 25 M2_FL=BUILDING STORY 1_SCH=A ERV DOAS EXHAUST FAN INLET NODE,ALL_ST=OFFICE ENCLOSED <= 25 M2_FL=BUILDING STORY 1_SCH=A ERV DOAS EXHAUST FAN OUTLET NODE,Air Nodes
 Component Set,31,WATERHEATER:HEATPUMP:PUMPEDCONDENSER,28GAL ELECTRICITY WATER HEATER - 19KBTU/HR 1.0 THERM EFF ASHPWH,FAN:ONOFF,FAN ON OFF 1,28GAL ELECTRICITY WATER HEATER - 19KBTU/HR 1.0 THERM EFF ASHPWH EVAP OUTLET - FAN INLET,28GAL ELECTRICITY WATER HEATER - 19KBTU/HR 1.0 THERM EFF ASHPWH FAN OUTLET - SPLITTER INLET,Air Nodes
 Component Set,32,ZONEHVAC:ENERGYRECOVERYVENTILATOR,ALL_ST=WAREHOUSE STORAGE AREA MEDIUM TO BULKY PALLETIZED ITEMS_FL=BUILDING STORY 1_SCH=A ERV DOAS,FAN:ONOFF,ALL_ST=WAREHOUSE STORAGE AREA MEDIUM TO BULKY PALLETIZED ITEMS_FL=BUILDING STORY 1_SCH=A ERV SUP FAN,ALL_ST=WAREHOUSE STORAGE AREA MEDIUM TO BULKY PALLETIZED ITEMS_FL=BUILDING STORY 1_SCH=A ERV DOAS SUPPLY FAN INLET NODE,NODE 70,Air Nodes
 Component Set,33,ZONEHVAC:ENERGYRECOVERYVENTILATOR,ALL_ST=WAREHOUSE STORAGE AREA MEDIUM TO BULKY PALLETIZED ITEMS_FL=BUILDING STORY 1_SCH=A ERV DOAS,FAN:ONOFF,ALL_ST=WAREHOUSE STORAGE AREA MEDIUM TO BULKY PALLETIZED ITEMS_FL=BUILDING STORY 1_SCH=A ERV EXH FAN,ALL_ST=WAREHOUSE STORAGE AREA MEDIUM TO BULKY PALLETIZED ITEMS_FL=BUILDING STORY 1_SCH=A ERV DOAS EXHAUST FAN INLET NODE,ALL_ST=WAREHOUSE STORAGE AREA MEDIUM TO BULKY PALLETIZED ITEMS_FL=BUILDING STORY 1_SCH=A ERV DOAS EXHAUST FAN OUTLET NODE,Air Nodes
 Component Set,34,ZONEHVAC:ENERGYRECOVERYVENTILATOR,ALL_ST=WAREHOUSE STORAGE AREA SMALL HAND-CARRIED ITEMS(4)_FL=BUILDING STORY 1_SCH=A ERV DOAS,FAN:ONOFF,ALL_ST=WAREHOUSE STORAGE AREA SMALL HAND-CARRIED ITEMS(4)_FL=BUILDING STORY 1_SCH=A ERV SUP FAN,ALL_ST=WAREHOUSE STORAGE AREA SMALL HAND-CARRIED ITEMS(4)_FL=BUILDING STORY 1_SCH=A ERV DOAS SUPPLY FAN INLET NODE,NODE 72,Air Nodes
 Component Set,35,ZONEHVAC:ENERGYRECOVERYVENTILATOR,ALL_ST=WAREHOUSE STORAGE AREA SMALL HAND-CARRIED ITEMS(4)_FL=BUILDING STORY 1_SCH=A ERV DOAS,FAN:ONOFF,ALL_ST=WAREHOUSE STORAGE AREA SMALL HAND-CARRIED ITEMS(4)_FL=BUILDING STORY 1_SCH=A ERV EXH FAN,ALL_ST=WAREHOUSE STORAGE AREA SMALL HAND-CARRIED ITEMS(4)_FL=BUILDING STORY 1_SCH=A ERV DOAS EXHAUST FAN INLET NODE,ALL_ST=WAREHOUSE STORAGE AREA SMALL HAND-CARRIED ITEMS(4)_FL=BUILDING STORY 1_SCH=A ERV DOAS EXHAUST FAN OUTLET NODE,Air Nodes
 Component Set,36,WATERHEATER:HEATPUMP:PUMPEDCONDENSER,28GAL ELECTRICITY WATER HEATER - 19KBTU/HR 1.0 THERM EFF ASHPWH,WATERHEATER:MIXED,28GAL ELECTRICITY WATER HEATER - 19KBTU/HR 1.0 THERM EFF,28GAL ELECTRICITY WATER HEATER - 19KBTU/HR 1.0 THERM EFF ASHPWH CONDENSER OUTLET - TANK INLET,28GAL ELECTRICITY WATER HEATER - 19KBTU/HR 1.0 THERM EFF ASHPWH TANK OUTLET - CONDENSER INLET,HPWH To Tank
 Component Set,37,ZONEHVAC:ENERGYRECOVERYVENTILATOR,ALL_ST=OFFICE ENCLOSED <= 25 M2_FL=BUILDING STORY 1_SCH=A ERV DOAS,HEATEXCHANGER:AIRTOAIR:SENSIBLEANDLATENT,ALL_ST=OFFICE ENCLOSED <= 25 M2_FL=BUILDING STORY 1_SCH=A ERV HX,ALL_ST=OFFICE ENCLOSED <= 25 M2_FL=BUILDING STORY 1_SCH=A ERV DOAS OA NODE,ALL_ST=OFFICE ENCLOSED <= 25 M2_FL=BUILDING STORY 1_SCH=A ERV DOAS SUPPLY FAN INLET NODE,Process Air Nodes
 Component Set,38,ZONEHVAC:ENERGYRECOVERYVENTILATOR,ALL_ST=WAREHOUSE STORAGE AREA MEDIUM TO BULKY PALLETIZED ITEMS_FL=BUILDING STORY 1_SCH=A ERV DOAS,HEATEXCHANGER:AIRTOAIR:SENSIBLEANDLATENT,ALL_ST=WAREHOUSE STORAGE AREA MEDIUM TO BULKY PALLETIZED ITEMS_FL=BUILDING STORY 1_SCH=A ERV HX,ALL_ST=WAREHOUSE STORAGE AREA MEDIUM TO BULKY PALLETIZED ITEMS_FL=BUILDING STORY 1_SCH=A ERV DOAS OA NODE,ALL_ST=WAREHOUSE STORAGE AREA MEDIUM TO BULKY PALLETIZED ITEMS_FL=BUILDING STORY 1_SCH=A ERV DOAS SUPPLY FAN INLET NODE,Process Air Nodes
 Component Set,39,ZONEHVAC:ENERGYRECOVERYVENTILATOR,ALL_ST=WAREHOUSE STORAGE AREA SMALL HAND-CARRIED ITEMS(4)_FL=BUILDING STORY 1_SCH=A ERV DOAS,HEATEXCHANGER:AIRTOAIR:SENSIBLEANDLATENT,ALL_ST=WAREHOUSE STORAGE AREA SMALL HAND-CARRIED ITEMS(4)_FL=BUILDING STORY 1_SCH=A ERV HX,ALL_ST=WAREHOUSE STORAGE AREA SMALL HAND-CARRIED ITEMS(4)_FL=BUILDING STORY 1_SCH=A ERV DOAS OA NODE,ALL_ST=WAREHOUSE STORAGE AREA SMALL HAND-CARRIED ITEMS(4)_FL=BUILDING STORY 1_SCH=A ERV DOAS SUPPLY FAN INLET NODE,Process Air Nodes
 Component Set,40,AIRLOOPHVAC:OUTDOORAIRSYSTEM,AIR LOOP HVAC OUTDOOR AIR SYSTEM 1,HEATEXCHANGER:AIRTOAIR:SENSIBLEANDLATENT,SYS_3_PSZ ALL_ST=OFFICE ENCLOSED <= 25 M2_FL=BUILDING STORY 1_SCH=A ERV,NODE 9,NODE 58,Process Air Nodes
 Component Set,41,AIRLOOPHVAC:OUTDOORAIRSYSTEM,AIR LOOP HVAC OUTDOOR AIR SYSTEM 3,HEATEXCHANGER:AIRTOAIR:SENSIBLEANDLATENT,SYS_4_PSZ_ALL_ST=WAREHOUSE STORAGE AREA MEDIUM TO BULKY PALLETIZED ITEMS_FL=BUILDING STORY 1_SCH=A ERV,NODE 31,NODE 60,Process Air Nodes
 Component Set,42,AIRLOOPHVAC:OUTDOORAIRSYSTEM,AIR LOOP HVAC OUTDOOR AIR SYSTEM 2,HEATEXCHANGER:AIRTOAIR:SENSIBLEANDLATENT,SYS_4_PSZ_ALL_ST=WAREHOUSE STORAGE AREA SMALL HAND-CARRIED ITEMS(4)_FL=BUILDING STORY 1_SCH=A ERV,NODE 20,NODE 62,Process Air Nodes
 Component Set,43,ZONEHVAC:AIRDISTRIBUTIONUNIT,ADU ALL_ST=OFFICE ENCLOSED <= 25 M2_FL=BUILDING STORY 1_SCH=A VAV TERMINAL,AIRTERMINAL:SINGLEDUCT:VAV:HEATANDCOOL:NOREHEAT,ALL_ST=OFFICE ENCLOSED <= 25 M2_FL=BUILDING STORY 1_SCH=A VAV TERMINAL,NODE 68,NODE 8,Air Nodes
 Component Set,44,ZONEHVAC:AIRDISTRIBUTIONUNIT,ADU ALL_ST=WAREHOUSE STORAGE AREA MEDIUM TO BULKY PALLETIZED ITEMS_FL=BUILDING STORY 1_SCH=A VAV TERMINAL,AIRTERMINAL:SINGLEDUCT:VAV:HEATANDCOOL:NOREHEAT,ALL_ST=WAREHOUSE STORAGE AREA MEDIUM TO BULKY PALLETIZED ITEMS_FL=BUILDING STORY 1_SCH=A VAV TERMINAL,NODE 64,NODE 30,Air Nodes
 Component Set,45,ZONEHVAC:AIRDISTRIBUTIONUNIT,ADU ALL_ST=WAREHOUSE STORAGE AREA SMALL HAND-CARRIED ITEMS(4)_FL=BUILDING STORY 1_SCH=A VAV TERMINAL,AIRTERMINAL:SINGLEDUCT:VAV:HEATANDCOOL:NOREHEAT,ALL_ST=WAREHOUSE STORAGE AREA SMALL HAND-CARRIED ITEMS(4)_FL=BUILDING STORY 1_SCH=A VAV TERMINAL,NODE 66,NODE 19,Air Nodes
 Component Set,46,AIRLOOPHVAC:OUTDOORAIRSYSTEM,AIR LOOP HVAC OUTDOOR AIR SYSTEM 1,OUTDOORAIR:MIXER,AIR LOOP HVAC OUTDOOR AIR SYSTEM 1 OUTDOOR AIR MIXER,NODE 58,NODE 13,Air Nodes
 Component Set,47,AIRLOOPHVAC:OUTDOORAIRSYSTEM,AIR LOOP HVAC OUTDOOR AIR SYSTEM 3,OUTDOORAIR:MIXER,AIR LOOP HVAC OUTDOOR AIR SYSTEM 3 OUTDOOR AIR MIXER,NODE 60,NODE 35,Air Nodes
 Component Set,48,AIRLOOPHVAC:OUTDOORAIRSYSTEM,AIR LOOP HVAC OUTDOOR AIR SYSTEM 2,OUTDOORAIR:MIXER,AIR LOOP HVAC OUTDOOR AIR SYSTEM 2 OUTDOOR AIR MIXER,NODE 62,NODE 24,Air Nodes
! ===============================================================
! <# Plant Loops>,<Number of Plant Loops>
 #Plant Loops,1
! <Plant Loop>,<Plant Loop Name>,<Loop Type>,<Inlet Node Name>,<Outlet Node Name>,<Branch List>,<Connector List>
! <Plant Loop Connector>,<Connector Type>,<Connector Name>,<Loop Name>,<Loop Type>,<Number of Inlets/Outlets>
! <Plant Loop Connector Branches>,<Connector Node Count>,<Connector Type>,<Connector Name>,<Inlet Branch>,<Outlet Branch>,<Loop Name>,<Loop Type>
! <Plant Loop Connector Nodes>,<Connector Node Count>,<Connector Type>,<Connector Name>,<Inlet Node>,<Outlet Node>,<Loop Name>,<Loop Type>
! <Plant Loop Supply Connection>,<Plant Loop Name>,<Supply Side Outlet Node Name>,<Demand Side Inlet Node Name>
! <Plant Loop Return Connection>,<Plant Loop Name>,<Demand Side Outlet Node Name>,<Supply Side Inlet Node Name>
 Plant Loop,MAIN SERVICE WATER LOOP,Demand,NODE 40,NODE 41,MAIN SERVICE WATER LOOP DEMAND BRANCHES,MAIN SERVICE WATER LOOP DEMAND CONNECTOR LIST
   Plant Loop Connector,Splitter,MAIN SERVICE WATER LOOP DEMAND SPLITTER,MAIN SERVICE WATER LOOP,Demand,5
     Plant Loop Connector Branches,1,Splitter,MAIN SERVICE WATER LOOP DEMAND SPLITTER,MAIN SERVICE WATER LOOP DEMAND INLET BRANCH,MAIN SERVICE WATER LOOP DEMAND BRANCH 1,MAIN SERVICE WATER LOOP,Demand
     Plant Loop Connector Nodes,   1,Splitter,MAIN SERVICE WATER LOOP DEMAND SPLITTER,NODE 49,NODE 42,MAIN SERVICE WATER LOOP,Demand
     Plant Loop Connector Branches,2,Splitter,MAIN SERVICE WATER LOOP DEMAND SPLITTER,MAIN SERVICE WATER LOOP DEMAND INLET BRANCH,MAIN SERVICE WATER LOOP DEMAND BRANCH 2,MAIN SERVICE WATER LOOP,Demand
     Plant Loop Connector Nodes,   2,Splitter,MAIN SERVICE WATER LOOP DEMAND SPLITTER,NODE 49,NODE 51,MAIN SERVICE WATER LOOP,Demand
     Plant Loop Connector Branches,3,Splitter,MAIN SERVICE WATER LOOP DEMAND SPLITTER,MAIN SERVICE WATER LOOP DEMAND INLET BRANCH,MAIN SERVICE WATER LOOP DEMAND BRANCH 3,MAIN SERVICE WATER LOOP,Demand
     Plant Loop Connector Nodes,   3,Splitter,MAIN SERVICE WATER LOOP DEMAND SPLITTER,NODE 49,NODE 53,MAIN SERVICE WATER LOOP,Demand
     Plant Loop Connector Branches,4,Splitter,MAIN SERVICE WATER LOOP DEMAND SPLITTER,MAIN SERVICE WATER LOOP DEMAND INLET BRANCH,MAIN SERVICE WATER LOOP DEMAND BRANCH 4,MAIN SERVICE WATER LOOP,Demand
     Plant Loop Connector Nodes,   4,Splitter,MAIN SERVICE WATER LOOP DEMAND SPLITTER,NODE 49,NODE 55,MAIN SERVICE WATER LOOP,Demand
     Plant Loop Connector Branches,5,Splitter,MAIN SERVICE WATER LOOP DEMAND SPLITTER,MAIN SERVICE WATER LOOP DEMAND INLET BRANCH,MAIN SERVICE WATER LOOP DEMAND BYPASS BRANCH,MAIN SERVICE WATER LOOP,Demand
     Plant Loop Connector Nodes,   5,Splitter,MAIN SERVICE WATER LOOP DEMAND SPLITTER,NODE 49,MAIN SERVICE WATER LOOP DEMAND BYPASS PIPE INLET NODE,MAIN SERVICE WATER LOOP,Demand
   Plant Loop Connector,Mixer,MAIN SERVICE WATER LOOP DEMAND MIXER,MAIN SERVICE WATER LOOP,Demand,5
     Plant Loop Connector Branches,1,Mixer,MAIN SERVICE WATER LOOP DEMAND MIXER,MAIN SERVICE WATER LOOP DEMAND BRANCH 1,MAIN SERVICE WATER LOOP DEMAND OUTLET BRANCH,MAIN SERVICE WATER LOOP,Demand
     Plant Loop Connector Nodes,   1,Mixer,MAIN SERVICE WATER LOOP DEMAND MIXER,NODE 47,NODE 50,MAIN SERVICE WATER LOOP,Demand
     Plant Loop Connector Branches,2,Mixer,MAIN SERVICE WATER LOOP DEMAND MIXER,MAIN SERVICE WATER LOOP DEMAND BRANCH 2,MAIN SERVICE WATER LOOP DEMAND OUTLET BRANCH,MAIN SERVICE WATER LOOP,Demand
     Plant Loop Connector Nodes,   2,Mixer,MAIN SERVICE WATER LOOP DEMAND MIXER,NODE 52,NODE 50,MAIN SERVICE WATER LOOP,Demand
     Plant Loop Connector Branches,3,Mixer,MAIN SERVICE WATER LOOP DEMAND MIXER,MAIN SERVICE WATER LOOP DEMAND BRANCH 3,MAIN SERVICE WATER LOOP DEMAND OUTLET BRANCH,MAIN SERVICE WATER LOOP,Demand
     Plant Loop Connector Nodes,   3,Mixer,MAIN SERVICE WATER LOOP DEMAND MIXER,NODE 54,NODE 50,MAIN SERVICE WATER LOOP,Demand
     Plant Loop Connector Branches,4,Mixer,MAIN SERVICE WATER LOOP DEMAND MIXER,MAIN SERVICE WATER LOOP DEMAND BRANCH 4,MAIN SERVICE WATER LOOP DEMAND OUTLET BRANCH,MAIN SERVICE WATER LOOP,Demand
     Plant Loop Connector Nodes,   4,Mixer,MAIN SERVICE WATER LOOP DEMAND MIXER,NODE 56,NODE 50,MAIN SERVICE WATER LOOP,Demand
     Plant Loop Connector Branches,5,Mixer,MAIN SERVICE WATER LOOP DEMAND MIXER,MAIN SERVICE WATER LOOP DEMAND BYPASS BRANCH,MAIN SERVICE WATER LOOP DEMAND OUTLET BRANCH,MAIN SERVICE WATER LOOP,Demand
     Plant Loop Connector Nodes,   5,Mixer,MAIN SERVICE WATER LOOP DEMAND MIXER,MAIN SERVICE WATER LOOP DEMAND BYPASS PIPE OUTLET NODE,NODE 50,MAIN SERVICE WATER LOOP,Demand
 Plant Loop,MAIN SERVICE WATER LOOP,Supply,NODE 37,NODE 38,MAIN SERVICE WATER LOOP SUPPLY BRANCHES,MAIN SERVICE WATER LOOP SUPPLY CONNECTOR LIST
   Plant Loop Connector,Splitter,MAIN SERVICE WATER LOOP SUPPLY SPLITTER,MAIN SERVICE WATER LOOP,Supply,2
     Plant Loop Connector Branches,1,Splitter,MAIN SERVICE WATER LOOP SUPPLY SPLITTER,MAIN SERVICE WATER LOOP SUPPLY INLET BRANCH,MAIN SERVICE WATER LOOP SUPPLY BRANCH 1,MAIN SERVICE WATER LOOP,Supply
     Plant Loop Connector Nodes,   1,Splitter,MAIN SERVICE WATER LOOP SUPPLY SPLITTER,NODE 43,NODE 39,MAIN SERVICE WATER LOOP,Supply
     Plant Loop Connector Branches,2,Splitter,MAIN SERVICE WATER LOOP SUPPLY SPLITTER,MAIN SERVICE WATER LOOP SUPPLY INLET BRANCH,MAIN SERVICE WATER LOOP SUPPLY BRANCH 2,MAIN SERVICE WATER LOOP,Supply
     Plant Loop Connector Nodes,   2,Splitter,MAIN SERVICE WATER LOOP SUPPLY SPLITTER,NODE 43,NODE 45,MAIN SERVICE WATER LOOP,Supply
   Plant Loop Connector,Mixer,MAIN SERVICE WATER LOOP SUPPLY MIXER,MAIN SERVICE WATER LOOP,Supply,2
     Plant Loop Connector Branches,1,Mixer,MAIN SERVICE WATER LOOP SUPPLY MIXER,MAIN SERVICE WATER LOOP SUPPLY BRANCH 1,MAIN SERVICE WATER LOOP SUPPLY OUTLET BRANCH,MAIN SERVICE WATER LOOP,Supply
     Plant Loop Connector Nodes,   1,Mixer,MAIN SERVICE WATER LOOP SUPPLY MIXER,NODE 44,NODE 48,MAIN SERVICE WATER LOOP,Supply
     Plant Loop Connector Branches,2,Mixer,MAIN SERVICE WATER LOOP SUPPLY MIXER,MAIN SERVICE WATER LOOP SUPPLY BRANCH 2,MAIN SERVICE WATER LOOP SUPPLY OUTLET BRANCH,MAIN SERVICE WATER LOOP,Supply
     Plant Loop Connector Nodes,   2,Mixer,MAIN SERVICE WATER LOOP SUPPLY MIXER,NODE 46,NODE 48,MAIN SERVICE WATER LOOP,Supply
 Plant Loop Supply Connection,MAIN SERVICE WATER LOOP,NODE 38,NODE 40
 Plant Loop Return Connection,MAIN SERVICE WATER LOOP,NODE 41,NODE 37
! ===============================================================
! <# Condenser Loops>,<Number of Condenser Loops>
 #Condenser Loops,0
! <Condenser Loop>,<Condenser Loop Name>,<Loop Type>,<Inlet Node Name>,<Outlet Node Name>,<Branch List>,<Connector List>
! <Condenser Loop Connector>,<Connector Type>,<Connector Name>,<Loop Name>,<Loop Type>,<Number of Inlets/Outlets>
! <Condenser Loop Connector Branches>,<Connector Node Count>,<Connector Type>,<Connector Name>,<Inlet Branch>,<Outlet Branch>,<Loop Name>,<Loop Type>
! <Condenser Loop Connector Nodes>,<Connector Node Count>,<Connector Type>,<Connector Name>,<Inlet Node>,<Outlet Node>,<Loop Name>,<Loop Type>
! <Condenser Loop Supply Connection>,<Condenser Loop Name>,<Supply Side Outlet Node Name>,<Demand Side Inlet Node Name>
! <Condenser Loop Return Connection>,<Condenser Loop Name>,<Demand Side Outlet Node Name>,<Supply Side Inlet Node Name>
! ===============================================================
! <# Controlled Zones>,<Number of Controlled Zones>
 #Controlled Zones,3
! <Controlled Zone>,<Controlled Zone Name>,<Equip List Name>,<Control List Name>,<Zone Node Name>,<# Inlet Nodes>,<# Exhaust Nodes>,<# Return Nodes>
! <Controlled Zone Inlet>,<Inlet Node Count>,<Controlled Zone Name>,<Supply Air Inlet Node Name>,<SD Sys:Cooling/Heating [DD:Cooling] Inlet Node Name>,<DD Sys:Heating Inlet Node Name>
! <Controlled Zone Exhaust>,<Exhaust Node Count>,<Controlled Zone Name>,<Exhaust Air Node Name>
 Controlled Zone,ALL_ST=OFFICE ENCLOSED <= 25 M2_FL=BUILDING STORY 1_SCH=A,ALL_ST=OFFICE ENCLOSED <= 25 M2_FL=BUILDING STORY 1_SCH=A EQUIPMENT LIST,,NODE 1,2,1,1
   Controlled Zone Inlet,1,ALL_ST=OFFICE ENCLOSED <= 25 M2_FL=BUILDING STORY 1_SCH=A,NODE 8,NODE 68,N/A
   Controlled Zone Inlet,2,ALL_ST=OFFICE ENCLOSED <= 25 M2_FL=BUILDING STORY 1_SCH=A,NODE 74,Undefined,N/A
   Controlled Zone Exhaust,1,ALL_ST=OFFICE ENCLOSED <= 25 M2_FL=BUILDING STORY 1_SCH=A,NODE 73
   Controlled Zone Return,1,ALL_ST=OFFICE ENCLOSED <= 25 M2_FL=BUILDING STORY 1_SCH=A,NODE 14
 Controlled Zone,ALL_ST=WAREHOUSE STORAGE AREA MEDIUM TO BULKY PALLETIZED ITEMS_FL=BUILDING STORY 1_SCH=A,ALL_ST=WAREHOUSE STORAGE AREA MEDIUM TO BULKY PALLETIZED ITEMS_FL=BUILDING STORY 1_SCH=A EQUIPMENT LIST,,NODE 7,3,2,1
   Controlled Zone Inlet,1,ALL_ST=WAREHOUSE STORAGE AREA MEDIUM TO BULKY PALLETIZED ITEMS_FL=BUILDING STORY 1_SCH=A,NODE 30,NODE 64,N/A
   Controlled Zone Inlet,2,ALL_ST=WAREHOUSE STORAGE AREA MEDIUM TO BULKY PALLETIZED ITEMS_FL=BUILDING STORY 1_SCH=A,NODE 70,Undefined,N/A
   Controlled Zone Inlet,3,ALL_ST=WAREHOUSE STORAGE AREA MEDIUM TO BULKY PALLETIZED ITEMS_FL=BUILDING STORY 1_SCH=A,NODE 76,Undefined,N/A
   Controlled Zone Exhaust,1,ALL_ST=WAREHOUSE STORAGE AREA MEDIUM TO BULKY PALLETIZED ITEMS_FL=BUILDING STORY 1_SCH=A,NODE 69
   Controlled Zone Exhaust,2,ALL_ST=WAREHOUSE STORAGE AREA MEDIUM TO BULKY PALLETIZED ITEMS_FL=BUILDING STORY 1_SCH=A,NODE 75
   Controlled Zone Return,1,ALL_ST=WAREHOUSE STORAGE AREA MEDIUM TO BULKY PALLETIZED ITEMS_FL=BUILDING STORY 1_SCH=A,NODE 36
 Controlled Zone,ALL_ST=WAREHOUSE STORAGE AREA SMALL HAND-CARRIED ITEMS(4)_FL=BUILDING STORY 1_SCH=A,ALL_ST=WAREHOUSE STORAGE AREA SMALL HAND-CARRIED ITEMS(4)_FL=BUILDING STORY 1_SCH=A EQUIPMENT LIST,,NODE 4,2,1,1
   Controlled Zone Inlet,1,ALL_ST=WAREHOUSE STORAGE AREA SMALL HAND-CARRIED ITEMS(4)_FL=BUILDING STORY 1_SCH=A,NODE 19,NODE 66,N/A
   Controlled Zone Inlet,2,ALL_ST=WAREHOUSE STORAGE AREA SMALL HAND-CARRIED ITEMS(4)_FL=BUILDING STORY 1_SCH=A,NODE 72,Undefined,N/A
   Controlled Zone Exhaust,1,ALL_ST=WAREHOUSE STORAGE AREA SMALL HAND-CARRIED ITEMS(4)_FL=BUILDING STORY 1_SCH=A,NODE 71
   Controlled Zone Return,1,ALL_ST=WAREHOUSE STORAGE AREA SMALL HAND-CARRIED ITEMS(4)_FL=BUILDING STORY 1_SCH=A,NODE 25
! ===============================================================
! <#Zone Equipment Lists>,<Number of Zone Equipment Lists>
 #Zone Equipment Lists,3
! <Zone Equipment List>,<Zone Equipment List Count>,<Zone Equipment List Name>,<Zone Name>,<Number of Components>
! <Zone Equipment Component>,<Component Count>,<Component Type>,<Component Name>,<Zone Name>,<Heating Priority>,<Cooling Priority>
 Zone Equipment List,1,ALL_ST=OFFICE ENCLOSED <= 25 M2_FL=BUILDING STORY 1_SCH=A EQUIPMENT LIST,ALL_ST=OFFICE ENCLOSED <= 25 M2_FL=BUILDING STORY 1_SCH=A,3
   Zone Equipment Component,1,ZONEHVAC:ENERGYRECOVERYVENTILATOR,ALL_ST=OFFICE ENCLOSED <= 25 M2_FL=BUILDING STORY 1_SCH=A ERV DOAS,ALL_ST=OFFICE ENCLOSED <= 25 M2_FL=BUILDING STORY 1_SCH=A,1,1
   Zone Equipment Component,2,ZONEHVAC:BASEBOARD:CONVECTIVE:ELECTRIC,ZONE HVAC BASEBOARD CONVECTIVE ELECTRIC 1,ALL_ST=OFFICE ENCLOSED <= 25 M2_FL=BUILDING STORY 1_SCH=A,2,2
   Zone Equipment Component,3,ZONEHVAC:AIRDISTRIBUTIONUNIT,ADU ALL_ST=OFFICE ENCLOSED <= 25 M2_FL=BUILDING STORY 1_SCH=A VAV TERMINAL,ALL_ST=OFFICE ENCLOSED <= 25 M2_FL=BUILDING STORY 1_SCH=A,3,3
 Zone Equipment List,2,ALL_ST=WAREHOUSE STORAGE AREA MEDIUM TO BULKY PALLETIZED ITEMS_FL=BUILDING STORY 1_SCH=A EQUIPMENT LIST,ALL_ST=WAREHOUSE STORAGE AREA MEDIUM TO BULKY PALLETIZED ITEMS_FL=BUILDING STORY 1_SCH=A,4
   Zone Equipment Component,1,WATERHEATER:HEATPUMP:PUMPEDCONDENSER,28GAL ELECTRICITY WATER HEATER - 19KBTU/HR 1.0 THERM EFF ASHPWH,ALL_ST=WAREHOUSE STORAGE AREA MEDIUM TO BULKY PALLETIZED ITEMS_FL=BUILDING STORY 1_SCH=A,1,1
   Zone Equipment Component,2,ZONEHVAC:ENERGYRECOVERYVENTILATOR,ALL_ST=WAREHOUSE STORAGE AREA MEDIUM TO BULKY PALLETIZED ITEMS_FL=BUILDING STORY 1_SCH=A ERV DOAS,ALL_ST=WAREHOUSE STORAGE AREA MEDIUM TO BULKY PALLETIZED ITEMS_FL=BUILDING STORY 1_SCH=A,2,2
   Zone Equipment Component,3,ZONEHVAC:BASEBOARD:CONVECTIVE:ELECTRIC,ZONE HVAC BASEBOARD CONVECTIVE ELECTRIC 3,ALL_ST=WAREHOUSE STORAGE AREA MEDIUM TO BULKY PALLETIZED ITEMS_FL=BUILDING STORY 1_SCH=A,3,3
   Zone Equipment Component,4,ZONEHVAC:AIRDISTRIBUTIONUNIT,ADU ALL_ST=WAREHOUSE STORAGE AREA MEDIUM TO BULKY PALLETIZED ITEMS_FL=BUILDING STORY 1_SCH=A VAV TERMINAL,ALL_ST=WAREHOUSE STORAGE AREA MEDIUM TO BULKY PALLETIZED ITEMS_FL=BUILDING STORY 1_SCH=A,4,4
 Zone Equipment List,3,ALL_ST=WAREHOUSE STORAGE AREA SMALL HAND-CARRIED ITEMS(4)_FL=BUILDING STORY 1_SCH=A EQUIPMENT LIST,ALL_ST=WAREHOUSE STORAGE AREA SMALL HAND-CARRIED ITEMS(4)_FL=BUILDING STORY 1_SCH=A,3
   Zone Equipment Component,1,ZONEHVAC:ENERGYRECOVERYVENTILATOR,ALL_ST=WAREHOUSE STORAGE AREA SMALL HAND-CARRIED ITEMS(4)_FL=BUILDING STORY 1_SCH=A ERV DOAS,ALL_ST=WAREHOUSE STORAGE AREA SMALL HAND-CARRIED ITEMS(4)_FL=BUILDING STORY 1_SCH=A,1,1
   Zone Equipment Component,2,ZONEHVAC:BASEBOARD:CONVECTIVE:ELECTRIC,ZONE HVAC BASEBOARD CONVECTIVE ELECTRIC 2,ALL_ST=WAREHOUSE STORAGE AREA SMALL HAND-CARRIED ITEMS(4)_FL=BUILDING STORY 1_SCH=A,2,2
   Zone Equipment Component,3,ZONEHVAC:AIRDISTRIBUTIONUNIT,ADU ALL_ST=WAREHOUSE STORAGE AREA SMALL HAND-CARRIED ITEMS(4)_FL=BUILDING STORY 1_SCH=A VAV TERMINAL,ALL_ST=WAREHOUSE STORAGE AREA SMALL HAND-CARRIED ITEMS(4)_FL=BUILDING STORY 1_SCH=A,3,3
! ===============================================================
! <#AirLoopHVACs>,<Number of AirLoopHVACs>
 #AirLoopHVACs,3
! <AirLoopHVAC>,<Air Loop Name>,<# Return Nodes>,<# Supply Nodes>,<# Zones Cooled>,<# Zones Heated>,<Outdoor Air Used>
! <AirLoop Return Connections>,<Connection Count>,<AirLoopHVAC Name>,<Zn Eqp Return Node #>,<Zn Eqp Return Node Name>,<AirLoop Return Node #>,<Air Loop Return Node Name>
! <AirLoop Supply Connections>,<Connection Count>,<AirLoopHVAC Name>,<Zn Eqp Supply Node #>,<Zn Eqp Supply Node Name>,<AirLoop Supply Node #>,<Air Loop Supply Node Name>
! <Cooled Zone Info>,<Cooled Zone Count>,<Cooled Zone Name>,<Cooled Zone Inlet Node #>,<Cooled Zone Inlet Node Name>,<AirLoopHVAC Name>
! <Heated Zone Info>,<Heated Zone Count>,<Heated Zone Name>,<Heated Zone Inlet Node #>,<Heated Zone Inlet Node Name>,<AirLoopHVAC Name>
! <Outdoor Air Connections>,<OA Inlet Node #>,<OA Return Air Inlet Node Name>,<OA Outlet Node #>,<OA Mixed Air Outlet Node Name>,<AirLoopHVAC Name>
! <AirLoopHVAC Connector>,<Connector Type>,<Connector Name>,<Loop Name>,<Loop Type>,<Number of Inlets/Outlets>
! <AirLoopHVAC Connector Branches>,<Connector Node Count>,<Connector Type>,<Connector Name>,<Inlet Branch>,<Outlet Branch>,<Loop Name>,<Loop Type>
! <AirLoopHVAC Connector Nodes>,<Connector Node Count>,<Connector Type>,<Connector Name>,<Inlet Node>,<Outlet Node>,<Loop Name>,<Loop Type>
 AirLoopHVAC,SYS_3_PSZ ALL_ST=OFFICE ENCLOSED <= 25 M2_FL=BUILDING STORY 1_SCH=A,1,1,1,0,Yes
   AirLoop Return Connections,1,SYS_3_PSZ ALL_ST=OFFICE ENCLOSED <= 25 M2_FL=BUILDING STORY 1_SCH=A,58,NODE 6,18,NODE 2
   AirLoop Supply Connections,1,SYS_3_PSZ ALL_ST=OFFICE ENCLOSED <= 25 M2_FL=BUILDING STORY 1_SCH=A,13,NODE 5,12,NODE 3
   Cooled Zone Info,1,ALL_ST=OFFICE ENCLOSED <= 25 M2_FL=BUILDING STORY 1_SCH=A,1,NODE 8,SYS_3_PSZ ALL_ST=OFFICE ENCLOSED <= 25 M2_FL=BUILDING STORY 1_SCH=A
   Outdoor Air Connections,18,NODE 2,19,NODE 13,SYS_3_PSZ ALL_ST=OFFICE ENCLOSED <= 25 M2_FL=BUILDING STORY 1_SCH=A
 AirLoopHVAC,SYS_4_PSZ_ALL_ST=WAREHOUSE STORAGE AREA MEDIUM TO BULKY PALLETIZED ITEMS_FL=BUILDING STORY 1_SCH=A,1,1,1,0,Yes
   AirLoop Return Connections,1,SYS_4_PSZ_ALL_ST=WAREHOUSE STORAGE AREA MEDIUM TO BULKY PALLETIZED ITEMS_FL=BUILDING STORY 1_SCH=A,59,NODE 29,22,NODE 26
   AirLoop Supply Connections,1,SYS_4_PSZ_ALL_ST=WAREHOUSE STORAGE AREA MEDIUM TO BULKY PALLETIZED ITEMS_FL=BUILDING STORY 1_SCH=A,15,NODE 28,14,NODE 27
   Cooled Zone Info,1,ALL_ST=WAREHOUSE STORAGE AREA MEDIUM TO BULKY PALLETIZED ITEMS_FL=BUILDING STORY 1_SCH=A,4,NODE 30,SYS_4_PSZ_ALL_ST=WAREHOUSE STORAGE AREA MEDIUM TO BULKY PALLETIZED ITEMS_FL=BUILDING STORY 1_SCH=A
   Outdoor Air Connections,22,NODE 26,23,NODE 35,SYS_4_PSZ_ALL_ST=WAREHOUSE STORAGE AREA MEDIUM TO BULKY PALLETIZED ITEMS_FL=BUILDING STORY 1_SCH=A
 AirLoopHVAC,SYS_4_PSZ_ALL_ST=WAREHOUSE STORAGE AREA SMALL HAND-CARRIED ITEMS(4)_FL=BUILDING STORY 1_SCH=A,1,1,1,0,Yes
   AirLoop Return Connections,1,SYS_4_PSZ_ALL_ST=WAREHOUSE STORAGE AREA SMALL HAND-CARRIED ITEMS(4)_FL=BUILDING STORY 1_SCH=A,60,NODE 18,26,NODE 15
   AirLoop Supply Connections,1,SYS_4_PSZ_ALL_ST=WAREHOUSE STORAGE AREA SMALL HAND-CARRIED ITEMS(4)_FL=BUILDING STORY 1_SCH=A,17,NODE 17,16,NODE 16
   Cooled Zone Info,1,ALL_ST=WAREHOUSE STORAGE AREA SMALL HAND-CARRIED ITEMS(4)_FL=BUILDING STORY 1_SCH=A,9,NODE 19,SYS_4_PSZ_ALL_ST=WAREHOUSE STORAGE AREA SMALL HAND-CARRIED ITEMS(4)_FL=BUILDING STORY 1_SCH=A
   Outdoor Air Connections,26,NODE 15,27,NODE 24,SYS_4_PSZ_ALL_ST=WAREHOUSE STORAGE AREA SMALL HAND-CARRIED ITEMS(4)_FL=BUILDING STORY 1_SCH=A
! ===============================================================
! <#Parent Node Connections>,<Number of Parent Node Connections>
 #Parent Node Connections,90
! <Parent Node Connection>,<Node Name>,<Node ObjectType>,<Node ObjectName>,<Node ConnectionType>,<Node FluidStream>
 Parent Node Connection,NODE 2,BRANCH,SYS_3_PSZ ALL_ST=OFFICE ENCLOSED <= 25 M2_FL=BUILDING STORY 1_SCH=A MAIN BRANCH,Inlet,1
 Parent Node Connection,NODE 13,BRANCH,SYS_3_PSZ ALL_ST=OFFICE ENCLOSED <= 25 M2_FL=BUILDING STORY 1_SCH=A MAIN BRANCH,Internal,1
 Parent Node Connection,NODE 12,BRANCH,SYS_3_PSZ ALL_ST=OFFICE ENCLOSED <= 25 M2_FL=BUILDING STORY 1_SCH=A MAIN BRANCH,Internal,1
 Parent Node Connection,NODE 67,BRANCH,SYS_3_PSZ ALL_ST=OFFICE ENCLOSED <= 25 M2_FL=BUILDING STORY 1_SCH=A MAIN BRANCH,Internal,1
 Parent Node Connection,NODE 3,BRANCH,SYS_3_PSZ ALL_ST=OFFICE ENCLOSED <= 25 M2_FL=BUILDING STORY 1_SCH=A MAIN BRANCH,Outlet,1
 Parent Node Connection,NODE 26,BRANCH,SYS_4_PSZ_ALL_ST=WAREHOUSE STORAGE AREA MEDIUM TO BULKY PALLETIZED ITEMS_FL=BUILDING STORY 1_SCH=A MAIN BRANCH,Inlet,1
 Parent Node Connection,NODE 35,BRANCH,SYS_4_PSZ_ALL_ST=WAREHOUSE STORAGE AREA MEDIUM TO BULKY PALLETIZED ITEMS_FL=BUILDING STORY 1_SCH=A MAIN BRANCH,Internal,1
 Parent Node Connection,NODE 34,BRANCH,SYS_4_PSZ_ALL_ST=WAREHOUSE STORAGE AREA MEDIUM TO BULKY PALLETIZED ITEMS_FL=BUILDING STORY 1_SCH=A MAIN BRANCH,Internal,1
 Parent Node Connection,NODE 57,BRANCH,SYS_4_PSZ_ALL_ST=WAREHOUSE STORAGE AREA MEDIUM TO BULKY PALLETIZED ITEMS_FL=BUILDING STORY 1_SCH=A MAIN BRANCH,Internal,1
 Parent Node Connection,NODE 27,BRANCH,SYS_4_PSZ_ALL_ST=WAREHOUSE STORAGE AREA MEDIUM TO BULKY PALLETIZED ITEMS_FL=BUILDING STORY 1_SCH=A MAIN BRANCH,Outlet,1
 Parent Node Connection,NODE 15,BRANCH,SYS_4_PSZ_ALL_ST=WAREHOUSE STORAGE AREA SMALL HAND-CARRIED ITEMS(4)_FL=BUILDING STORY 1_SCH=A MAIN BRANCH,Inlet,1
 Parent Node Connection,NODE 24,BRANCH,SYS_4_PSZ_ALL_ST=WAREHOUSE STORAGE AREA SMALL HAND-CARRIED ITEMS(4)_FL=BUILDING STORY 1_SCH=A MAIN BRANCH,Internal,1
 Parent Node Connection,NODE 23,BRANCH,SYS_4_PSZ_ALL_ST=WAREHOUSE STORAGE AREA SMALL HAND-CARRIED ITEMS(4)_FL=BUILDING STORY 1_SCH=A MAIN BRANCH,Internal,1
 Parent Node Connection,NODE 65,BRANCH,SYS_4_PSZ_ALL_ST=WAREHOUSE STORAGE AREA SMALL HAND-CARRIED ITEMS(4)_FL=BUILDING STORY 1_SCH=A MAIN BRANCH,Internal,1
 Parent Node Connection,NODE 16,BRANCH,SYS_4_PSZ_ALL_ST=WAREHOUSE STORAGE AREA SMALL HAND-CARRIED ITEMS(4)_FL=BUILDING STORY 1_SCH=A MAIN BRANCH,Outlet,1
 Parent Node Connection,NODE 37,BRANCH,MAIN SERVICE WATER LOOP SUPPLY INLET BRANCH,Inlet,1
 Parent Node Connection,NODE 43,BRANCH,MAIN SERVICE WATER LOOP SUPPLY INLET BRANCH,Outlet,1
 Parent Node Connection,NODE 39,BRANCH,MAIN SERVICE WATER LOOP SUPPLY BRANCH 1,Inlet,1
 Parent Node Connection,NODE 44,BRANCH,MAIN SERVICE WATER LOOP SUPPLY BRANCH 1,Outlet,1
 Parent Node Connection,NODE 45,BRANCH,MAIN SERVICE WATER LOOP SUPPLY BRANCH 2,Inlet,1
 Parent Node Connection,NODE 46,BRANCH,MAIN SERVICE WATER LOOP SUPPLY BRANCH 2,Outlet,1
 Parent Node Connection,NODE 48,BRANCH,MAIN SERVICE WATER LOOP SUPPLY OUTLET BRANCH,Inlet,1
 Parent Node Connection,NODE 38,BRANCH,MAIN SERVICE WATER LOOP SUPPLY OUTLET BRANCH,Outlet,1
 Parent Node Connection,NODE 40,BRANCH,MAIN SERVICE WATER LOOP DEMAND INLET BRANCH,Inlet,1
 Parent Node Connection,NODE 49,BRANCH,MAIN SERVICE WATER LOOP DEMAND INLET BRANCH,Outlet,1
 Parent Node Connection,NODE 42,BRANCH,MAIN SERVICE WATER LOOP DEMAND BRANCH 1,Inlet,1
 Parent Node Connection,NODE 47,BRANCH,MAIN SERVICE WATER LOOP DEMAND BRANCH 1,Outlet,1
 Parent Node Connection,NODE 51,BRANCH,MAIN SERVICE WATER LOOP DEMAND BRANCH 2,Inlet,1
 Parent Node Connection,NODE 52,BRANCH,MAIN SERVICE WATER LOOP DEMAND BRANCH 2,Outlet,1
 Parent Node Connection,NODE 53,BRANCH,MAIN SERVICE WATER LOOP DEMAND BRANCH 3,Inlet,1
 Parent Node Connection,NODE 54,BRANCH,MAIN SERVICE WATER LOOP DEMAND BRANCH 3,Outlet,1
 Parent Node Connection,NODE 55,BRANCH,MAIN SERVICE WATER LOOP DEMAND BRANCH 4,Inlet,1
 Parent Node Connection,NODE 56,BRANCH,MAIN SERVICE WATER LOOP DEMAND BRANCH 4,Outlet,1
 Parent Node Connection,MAIN SERVICE WATER LOOP DEMAND BYPASS PIPE INLET NODE,BRANCH,MAIN SERVICE WATER LOOP DEMAND BYPASS BRANCH,Inlet,1
 Parent Node Connection,MAIN SERVICE WATER LOOP DEMAND BYPASS PIPE OUTLET NODE,BRANCH,MAIN SERVICE WATER LOOP DEMAND BYPASS BRANCH,Outlet,1
 Parent Node Connection,NODE 50,BRANCH,MAIN SERVICE WATER LOOP DEMAND OUTLET BRANCH,Inlet,1
 Parent Node Connection,NODE 41,BRANCH,MAIN SERVICE WATER LOOP DEMAND OUTLET BRANCH,Outlet,1
 Parent Node Connection,NODE 5,AIRLOOPHVAC:SUPPLYPATH,SYS_3_PSZ ALL_ST=OFFICE ENCLOSED <= 25 M2_FL=BUILDING STORY 1_SCH=A NODE 5 SUPPLY PATH,Inlet,1
 Parent Node Connection,NODE 28,AIRLOOPHVAC:SUPPLYPATH,SYS_4_PSZ_ALL_ST=WAREHOUSE STORAGE AREA MEDIUM TO BULKY PALLETIZED ITEMS_FL=BUILDING STORY 1_SCH=A NODE 28 SUPPLY PATH,Inlet,1
 Parent Node Connection,NODE 17,AIRLOOPHVAC:SUPPLYPATH,SYS_4_PSZ_ALL_ST=WAREHOUSE STORAGE AREA SMALL HAND-CARRIED ITEMS(4)_FL=BUILDING STORY 1_SCH=A NODE 17 SUPPLY PATH,Inlet,1
 Parent Node Connection,NODE 6,AIRLOOPHVAC:RETURNPATH,SYS_3_PSZ ALL_ST=OFFICE ENCLOSED <= 25 M2_FL=BUILDING STORY 1_SCH=A RETURN PATH,Outlet,1
 Parent Node Connection,NODE 29,AIRLOOPHVAC:RETURNPATH,SYS_4_PSZ_ALL_ST=WAREHOUSE STORAGE AREA MEDIUM TO BULKY PALLETIZED ITEMS_FL=BUILDING STORY 1_SCH=A RETURN PATH,Outlet,1
 Parent Node Connection,NODE 18,AIRLOOPHVAC:RETURNPATH,SYS_4_PSZ_ALL_ST=WAREHOUSE STORAGE AREA SMALL HAND-CARRIED ITEMS(4)_FL=BUILDING STORY 1_SCH=A RETURN PATH,Outlet,1
 Parent Node Connection,28GAL ELECTRICITY WATER HEATER - 19KBTU/HR 1.0 THERM EFF ASHPWH TANK OUTLET - CONDENSER INLET,WATERHEATER:HEATPUMP:PUMPEDCONDENSER,28GAL ELECTRICITY WATER HEATER - 19KBTU/HR 1.0 THERM EFF ASHPWH,Inlet,2
 Parent Node Connection,28GAL ELECTRICITY WATER HEATER - 19KBTU/HR 1.0 THERM EFF ASHPWH CONDENSER OUTLET - TANK INLET,WATERHEATER:HEATPUMP:PUMPEDCONDENSER,28GAL ELECTRICITY WATER HEATER - 19KBTU/HR 1.0 THERM EFF ASHPWH,Outlet,2
 Parent Node Connection,NODE 39,WATERHEATER:HEATPUMP:PUMPEDCONDENSER,28GAL ELECTRICITY WATER HEATER - 19KBTU/HR 1.0 THERM EFF ASHPWH,Inlet,1
 Parent Node Connection,NODE 44,WATERHEATER:HEATPUMP:PUMPEDCONDENSER,28GAL ELECTRICITY WATER HEATER - 19KBTU/HR 1.0 THERM EFF ASHPWH,Outlet,1
 Parent Node Connection,28GAL ELECTRICITY WATER HEATER - 19KBTU/HR 1.0 THERM EFF ASHPWH OUTDOOR AIR,WATERHEATER:HEATPUMP:PUMPEDCONDENSER,28GAL ELECTRICITY WATER HEATER - 19KBTU/HR 1.0 THERM EFF ASHPWH,OutsideAirReference,1
 Parent Node Connection,28GAL ELECTRICITY WATER HEATER - 19KBTU/HR 1.0 THERM EFF ASHPWH EXHAUST AIR,WATERHEATER:HEATPUMP:PUMPEDCONDENSER,28GAL ELECTRICITY WATER HEATER - 19KBTU/HR 1.0 THERM EFF ASHPWH,ReliefAir,1
 Parent Node Connection,NODE 37,PLANTLOOP,MAIN SERVICE WATER LOOP,Inlet,1
 Parent Node Connection,NODE 38,PLANTLOOP,MAIN SERVICE WATER LOOP,Outlet,1
 Parent Node Connection,NODE 40,PLANTLOOP,MAIN SERVICE WATER LOOP,Inlet,1
 Parent Node Connection,NODE 41,PLANTLOOP,MAIN SERVICE WATER LOOP,Outlet,1
 Parent Node Connection,NODE 38,PLANTLOOP,MAIN SERVICE WATER LOOP,Sensor,1
 Parent Node Connection,ALL_ST=OFFICE ENCLOSED <= 25 M2_FL=BUILDING STORY 1_SCH=A ERV DOAS OA NODE,ZONEHVAC:ENERGYRECOVERYVENTILATOR,ALL_ST=OFFICE ENCLOSED <= 25 M2_FL=BUILDING STORY 1_SCH=A ERV DOAS,Inlet,1
 Parent Node Connection,NODE 74,ZONEHVAC:ENERGYRECOVERYVENTILATOR,ALL_ST=OFFICE ENCLOSED <= 25 M2_FL=BUILDING STORY 1_SCH=A ERV DOAS,Outlet,1
 Parent Node Connection,NODE 73,ZONEHVAC:ENERGYRECOVERYVENTILATOR,ALL_ST=OFFICE ENCLOSED <= 25 M2_FL=BUILDING STORY 1_SCH=A ERV DOAS,Inlet,2
 Parent Node Connection,ALL_ST=OFFICE ENCLOSED <= 25 M2_FL=BUILDING STORY 1_SCH=A ERV DOAS EXHAUST FAN OUTLET NODE,ZONEHVAC:ENERGYRECOVERYVENTILATOR,ALL_ST=OFFICE ENCLOSED <= 25 M2_FL=BUILDING STORY 1_SCH=A ERV DOAS,ReliefAir,2
 Parent Node Connection,ALL_ST=WAREHOUSE STORAGE AREA MEDIUM TO BULKY PALLETIZED ITEMS_FL=BUILDING STORY 1_SCH=A ERV DOAS OA NODE,ZONEHVAC:ENERGYRECOVERYVENTILATOR,ALL_ST=WAREHOUSE STORAGE AREA MEDIUM TO BULKY PALLETIZED ITEMS_FL=BUILDING STORY 1_SCH=A ERV DOAS,Inlet,1
 Parent Node Connection,NODE 70,ZONEHVAC:ENERGYRECOVERYVENTILATOR,ALL_ST=WAREHOUSE STORAGE AREA MEDIUM TO BULKY PALLETIZED ITEMS_FL=BUILDING STORY 1_SCH=A ERV DOAS,Outlet,1
 Parent Node Connection,NODE 69,ZONEHVAC:ENERGYRECOVERYVENTILATOR,ALL_ST=WAREHOUSE STORAGE AREA MEDIUM TO BULKY PALLETIZED ITEMS_FL=BUILDING STORY 1_SCH=A ERV DOAS,Inlet,2
 Parent Node Connection,ALL_ST=WAREHOUSE STORAGE AREA MEDIUM TO BULKY PALLETIZED ITEMS_FL=BUILDING STORY 1_SCH=A ERV DOAS EXHAUST FAN OUTLET NODE,ZONEHVAC:ENERGYRECOVERYVENTILATOR,ALL_ST=WAREHOUSE STORAGE AREA MEDIUM TO BULKY PALLETIZED ITEMS_FL=BUILDING STORY 1_SCH=A ERV DOAS,ReliefAir,2
 Parent Node Connection,ALL_ST=WAREHOUSE STORAGE AREA SMALL HAND-CARRIED ITEMS(4)_FL=BUILDING STORY 1_SCH=A ERV DOAS OA NODE,ZONEHVAC:ENERGYRECOVERYVENTILATOR,ALL_ST=WAREHOUSE STORAGE AREA SMALL HAND-CARRIED ITEMS(4)_FL=BUILDING STORY 1_SCH=A ERV DOAS,Inlet,1
 Parent Node Connection,NODE 72,ZONEHVAC:ENERGYRECOVERYVENTILATOR,ALL_ST=WAREHOUSE STORAGE AREA SMALL HAND-CARRIED ITEMS(4)_FL=BUILDING STORY 1_SCH=A ERV DOAS,Outlet,1
 Parent Node Connection,NODE 71,ZONEHVAC:ENERGYRECOVERYVENTILATOR,ALL_ST=WAREHOUSE STORAGE AREA SMALL HAND-CARRIED ITEMS(4)_FL=BUILDING STORY 1_SCH=A ERV DOAS,Inlet,2
 Parent Node Connection,ALL_ST=WAREHOUSE STORAGE AREA SMALL HAND-CARRIED ITEMS(4)_FL=BUILDING STORY 1_SCH=A ERV DOAS EXHAUST FAN OUTLET NODE,ZONEHVAC:ENERGYRECOVERYVENTILATOR,ALL_ST=WAREHOUSE STORAGE AREA SMALL HAND-CARRIED ITEMS(4)_FL=BUILDING STORY 1_SCH=A ERV DOAS,ReliefAir,2
 Parent Node Connection,NODE 8,ZONEHVAC:AIRDISTRIBUTIONUNIT,ADU ALL_ST=OFFICE ENCLOSED <= 25 M2_FL=BUILDING STORY 1_SCH=A VAV TERMINAL,Outlet,1
 Parent Node Connection,NODE 30,ZONEHVAC:AIRDISTRIBUTIONUNIT,ADU ALL_ST=WAREHOUSE STORAGE AREA MEDIUM TO BULKY PALLETIZED ITEMS_FL=BUILDING STORY 1_SCH=A VAV TERMINAL,Outlet,1
 Parent Node Connection,NODE 19,ZONEHVAC:AIRDISTRIBUTIONUNIT,ADU ALL_ST=WAREHOUSE STORAGE AREA SMALL HAND-CARRIED ITEMS(4)_FL=BUILDING STORY 1_SCH=A VAV TERMINAL,Outlet,1
 Parent Node Connection,NODE 2,AIRLOOPHVAC,SYS_3_PSZ ALL_ST=OFFICE ENCLOSED <= 25 M2_FL=BUILDING STORY 1_SCH=A,Inlet,1
 Parent Node Connection,NODE 6,AIRLOOPHVAC,SYS_3_PSZ ALL_ST=OFFICE ENCLOSED <= 25 M2_FL=BUILDING STORY 1_SCH=A,Outlet,1
 Parent Node Connection,NODE 5,AIRLOOPHVAC,SYS_3_PSZ ALL_ST=OFFICE ENCLOSED <= 25 M2_FL=BUILDING STORY 1_SCH=A,Inlet,1
 Parent Node Connection,NODE 3,AIRLOOPHVAC,SYS_3_PSZ ALL_ST=OFFICE ENCLOSED <= 25 M2_FL=BUILDING STORY 1_SCH=A,Outlet,1
 Parent Node Connection,NODE 26,AIRLOOPHVAC,SYS_4_PSZ_ALL_ST=WAREHOUSE STORAGE AREA MEDIUM TO BULKY PALLETIZED ITEMS_FL=BUILDING STORY 1_SCH=A,Inlet,1
 Parent Node Connection,NODE 29,AIRLOOPHVAC,SYS_4_PSZ_ALL_ST=WAREHOUSE STORAGE AREA MEDIUM TO BULKY PALLETIZED ITEMS_FL=BUILDING STORY 1_SCH=A,Outlet,1
 Parent Node Connection,NODE 28,AIRLOOPHVAC,SYS_4_PSZ_ALL_ST=WAREHOUSE STORAGE AREA MEDIUM TO BULKY PALLETIZED ITEMS_FL=BUILDING STORY 1_SCH=A,Inlet,1
 Parent Node Connection,NODE 27,AIRLOOPHVAC,SYS_4_PSZ_ALL_ST=WAREHOUSE STORAGE AREA MEDIUM TO BULKY PALLETIZED ITEMS_FL=BUILDING STORY 1_SCH=A,Outlet,1
 Parent Node Connection,NODE 15,AIRLOOPHVAC,SYS_4_PSZ_ALL_ST=WAREHOUSE STORAGE AREA SMALL HAND-CARRIED ITEMS(4)_FL=BUILDING STORY 1_SCH=A,Inlet,1
 Parent Node Connection,NODE 18,AIRLOOPHVAC,SYS_4_PSZ_ALL_ST=WAREHOUSE STORAGE AREA SMALL HAND-CARRIED ITEMS(4)_FL=BUILDING STORY 1_SCH=A,Outlet,1
 Parent Node Connection,NODE 17,AIRLOOPHVAC,SYS_4_PSZ_ALL_ST=WAREHOUSE STORAGE AREA SMALL HAND-CARRIED ITEMS(4)_FL=BUILDING STORY 1_SCH=A,Inlet,1
 Parent Node Connection,NODE 16,AIRLOOPHVAC,SYS_4_PSZ_ALL_ST=WAREHOUSE STORAGE AREA SMALL HAND-CARRIED ITEMS(4)_FL=BUILDING STORY 1_SCH=A,Outlet,1
 Parent Node Connection,NODE 13,COILSYSTEM:COOLING:DX,COIL COOLING DX SINGLE SPEED 1 52KBTU/HR 14.0SEER COILSYSTEM,Inlet,1
 Parent Node Connection,NODE 12,COILSYSTEM:COOLING:DX,COIL COOLING DX SINGLE SPEED 1 52KBTU/HR 14.0SEER COILSYSTEM,Outlet,1
 Parent Node Connection,NODE 12,COILSYSTEM:COOLING:DX,COIL COOLING DX SINGLE SPEED 1 52KBTU/HR 14.0SEER COILSYSTEM,Sensor,1
 Parent Node Connection,NODE 35,COILSYSTEM:COOLING:DX,COIL COOLING DX SINGLE SPEED 3 649KBTU/HR 8.39EER COILSYSTEM,Inlet,1
 Parent Node Connection,NODE 34,COILSYSTEM:COOLING:DX,COIL COOLING DX SINGLE SPEED 3 649KBTU/HR 8.39EER COILSYSTEM,Outlet,1
 Parent Node Connection,NODE 34,COILSYSTEM:COOLING:DX,COIL COOLING DX SINGLE SPEED 3 649KBTU/HR 8.39EER COILSYSTEM,Sensor,1
 Parent Node Connection,NODE 24,COILSYSTEM:COOLING:DX,COIL COOLING DX SINGLE SPEED 2 304KBTU/HR 8.39EER COILSYSTEM,Inlet,1
 Parent Node Connection,NODE 23,COILSYSTEM:COOLING:DX,COIL COOLING DX SINGLE SPEED 2 304KBTU/HR 8.39EER COILSYSTEM,Outlet,1
 Parent Node Connection,NODE 23,COILSYSTEM:COOLING:DX,COIL COOLING DX SINGLE SPEED 2 304KBTU/HR 8.39EER COILSYSTEM,Sensor,1
! ===============================================================
! <#Non-Parent Node Connections>,<Number of Non-Parent Node Connections>
 #Non-Parent Node Connections,219
! <Non-Parent Node Connection>,<Node Name>,<Node ObjectType>,<Node ObjectName>,<Node ConnectionType>,<Node FluidStream>
 Non-Parent Node Connection,NODE 1,ZONEHVAC:EQUIPMENTCONNECTIONS,ALL_ST=OFFICE ENCLOSED <= 25 M2_FL=BUILDING STORY 1_SCH=A,ZoneNode,1
 Non-Parent Node Connection,NODE 8,ZONEHVAC:EQUIPMENTCONNECTIONS,ALL_ST=OFFICE ENCLOSED <= 25 M2_FL=BUILDING STORY 1_SCH=A,ZoneInlet,1
 Non-Parent Node Connection,NODE 74,ZONEHVAC:EQUIPMENTCONNECTIONS,ALL_ST=OFFICE ENCLOSED <= 25 M2_FL=BUILDING STORY 1_SCH=A,ZoneInlet,1
 Non-Parent Node Connection,NODE 73,ZONEHVAC:EQUIPMENTCONNECTIONS,ALL_ST=OFFICE ENCLOSED <= 25 M2_FL=BUILDING STORY 1_SCH=A,ZoneExhaust,1
 Non-Parent Node Connection,NODE 14,ZONEHVAC:EQUIPMENTCONNECTIONS,ALL_ST=OFFICE ENCLOSED <= 25 M2_FL=BUILDING STORY 1_SCH=A,ZoneReturn,1
 Non-Parent Node Connection,NODE 7,ZONEHVAC:EQUIPMENTCONNECTIONS,ALL_ST=WAREHOUSE STORAGE AREA MEDIUM TO BULKY PALLETIZED ITEMS_FL=BUILDING STORY 1_SCH=A,ZoneNode,1
 Non-Parent Node Connection,NODE 30,ZONEHVAC:EQUIPMENTCONNECTIONS,ALL_ST=WAREHOUSE STORAGE AREA MEDIUM TO BULKY PALLETIZED ITEMS_FL=BUILDING STORY 1_SCH=A,ZoneInlet,1
 Non-Parent Node Connection,NODE 70,ZONEHVAC:EQUIPMENTCONNECTIONS,ALL_ST=WAREHOUSE STORAGE AREA MEDIUM TO BULKY PALLETIZED ITEMS_FL=BUILDING STORY 1_SCH=A,ZoneInlet,1
 Non-Parent Node Connection,NODE 76,ZONEHVAC:EQUIPMENTCONNECTIONS,ALL_ST=WAREHOUSE STORAGE AREA MEDIUM TO BULKY PALLETIZED ITEMS_FL=BUILDING STORY 1_SCH=A,ZoneInlet,1
 Non-Parent Node Connection,NODE 69,ZONEHVAC:EQUIPMENTCONNECTIONS,ALL_ST=WAREHOUSE STORAGE AREA MEDIUM TO BULKY PALLETIZED ITEMS_FL=BUILDING STORY 1_SCH=A,ZoneExhaust,1
 Non-Parent Node Connection,NODE 75,ZONEHVAC:EQUIPMENTCONNECTIONS,ALL_ST=WAREHOUSE STORAGE AREA MEDIUM TO BULKY PALLETIZED ITEMS_FL=BUILDING STORY 1_SCH=A,ZoneExhaust,1
 Non-Parent Node Connection,NODE 36,ZONEHVAC:EQUIPMENTCONNECTIONS,ALL_ST=WAREHOUSE STORAGE AREA MEDIUM TO BULKY PALLETIZED ITEMS_FL=BUILDING STORY 1_SCH=A,ZoneReturn,1
 Non-Parent Node Connection,NODE 4,ZONEHVAC:EQUIPMENTCONNECTIONS,ALL_ST=WAREHOUSE STORAGE AREA SMALL HAND-CARRIED ITEMS(4)_FL=BUILDING STORY 1_SCH=A,ZoneNode,1
 Non-Parent Node Connection,NODE 19,ZONEHVAC:EQUIPMENTCONNECTIONS,ALL_ST=WAREHOUSE STORAGE AREA SMALL HAND-CARRIED ITEMS(4)_FL=BUILDING STORY 1_SCH=A,ZoneInlet,1
 Non-Parent Node Connection,NODE 72,ZONEHVAC:EQUIPMENTCONNECTIONS,ALL_ST=WAREHOUSE STORAGE AREA SMALL HAND-CARRIED ITEMS(4)_FL=BUILDING STORY 1_SCH=A,ZoneInlet,1
 Non-Parent Node Connection,NODE 71,ZONEHVAC:EQUIPMENTCONNECTIONS,ALL_ST=WAREHOUSE STORAGE AREA SMALL HAND-CARRIED ITEMS(4)_FL=BUILDING STORY 1_SCH=A,ZoneExhaust,1
 Non-Parent Node Connection,NODE 25,ZONEHVAC:EQUIPMENTCONNECTIONS,ALL_ST=WAREHOUSE STORAGE AREA SMALL HAND-CARRIED ITEMS(4)_FL=BUILDING STORY 1_SCH=A,ZoneReturn,1
 Non-Parent Node Connection,NODE 13,COIL:COOLING:DX:SINGLESPEED,COIL COOLING DX SINGLE SPEED 1 52KBTU/HR 14.0SEER,Inlet,1
 Non-Parent Node Connection,NODE 12,COIL:COOLING:DX:SINGLESPEED,COIL COOLING DX SINGLE SPEED 1 52KBTU/HR 14.0SEER,Outlet,1
 Non-Parent Node Connection,NODE 35,COIL:COOLING:DX:SINGLESPEED,COIL COOLING DX SINGLE SPEED 3 649KBTU/HR 8.39EER,Inlet,1
 Non-Parent Node Connection,NODE 34,COIL:COOLING:DX:SINGLESPEED,COIL COOLING DX SINGLE SPEED 3 649KBTU/HR 8.39EER,Outlet,1
 Non-Parent Node Connection,NODE 24,COIL:COOLING:DX:SINGLESPEED,COIL COOLING DX SINGLE SPEED 2 304KBTU/HR 8.39EER,Inlet,1
 Non-Parent Node Connection,NODE 23,COIL:COOLING:DX:SINGLESPEED,COIL COOLING DX SINGLE SPEED 2 304KBTU/HR 8.39EER,Outlet,1
 Non-Parent Node Connection,28GAL ELECTRICITY WATER HEATER - 19KBTU/HR 1.0 THERM EFF ASHPWH MIXER OUTLET - EVAP INLET,COIL:WATERHEATING:AIRTOWATERHEATPUMP:PUMPED,COIL WATER HEATING AIR TO WATER HEAT PUMP 1,Inlet,1
 Non-Parent Node Connection,28GAL ELECTRICITY WATER HEATER - 19KBTU/HR 1.0 THERM EFF ASHPWH EVAP OUTLET - FAN INLET,COIL:WATERHEATING:AIRTOWATERHEATPUMP:PUMPED,COIL WATER HEATING AIR TO WATER HEAT PUMP 1,Outlet,1
 Non-Parent Node Connection,ALL_ST=OFFICE ENCLOSED <= 25 M2_FL=BUILDING STORY 1_SCH=A ERV DOAS OA NODE,OUTDOORAIR:NODELIST,OutdoorAir:NodeList,OutdoorAir,1
 Non-Parent Node Connection,ALL_ST=WAREHOUSE STORAGE AREA MEDIUM TO BULKY PALLETIZED ITEMS_FL=BUILDING STORY 1_SCH=A ERV DOAS OA NODE,OUTDOORAIR:NODELIST,OutdoorAir:NodeList,OutdoorAir,2
 Non-Parent Node Connection,ALL_ST=WAREHOUSE STORAGE AREA SMALL HAND-CARRIED ITEMS(4)_FL=BUILDING STORY 1_SCH=A ERV DOAS OA NODE,OUTDOORAIR:NODELIST,OutdoorAir:NodeList,OutdoorAir,3
 Non-Parent Node Connection,NODE 9,OUTDOORAIR:NODELIST,OutdoorAir:NodeList,OutdoorAir,4
 Non-Parent Node Connection,NODE 31,OUTDOORAIR:NODELIST,OutdoorAir:NodeList,OutdoorAir,5
 Non-Parent Node Connection,NODE 20,OUTDOORAIR:NODELIST,OutdoorAir:NodeList,OutdoorAir,6
 Non-Parent Node Connection,MODEL OUTDOOR AIR NODE,OUTDOORAIR:NODE,OutdoorAir:Node,OutdoorAir,7
 Non-Parent Node Connection,28GAL ELECTRICITY WATER HEATER - 19KBTU/HR 1.0 THERM EFF ASHPWH TANK OUTLET - CONDENSER INLET,COIL:WATERHEATING:AIRTOWATERHEATPUMP:PUMPED,COIL WATER HEATING AIR TO WATER HEAT PUMP 1,Inlet,2
 Non-Parent Node Connection,28GAL ELECTRICITY WATER HEATER - 19KBTU/HR 1.0 THERM EFF ASHPWH CONDENSER OUTLET - TANK INLET,COIL:WATERHEATING:AIRTOWATERHEATPUMP:PUMPED,COIL WATER HEATING AIR TO WATER HEAT PUMP 1,Outlet,2
 Non-Parent Node Connection,NODE 67,FAN:VARIABLEVOLUME,FAN VARIABLE VOLUME 3,Inlet,1
 Non-Parent Node Connection,NODE 3,FAN:VARIABLEVOLUME,FAN VARIABLE VOLUME 3,Outlet,1
 Non-Parent Node Connection,NODE 57,FAN:VARIABLEVOLUME,FAN VARIABLE VOLUME 1,Inlet,1
 Non-Parent Node Connection,NODE 27,FAN:VARIABLEVOLUME,FAN VARIABLE VOLUME 1,Outlet,1
 Non-Parent Node Connection,NODE 65,FAN:VARIABLEVOLUME,FAN VARIABLE VOLUME 2,Inlet,1
 Non-Parent Node Connection,NODE 16,FAN:VARIABLEVOLUME,FAN VARIABLE VOLUME 2,Outlet,1
 Non-Parent Node Connection,ALL_ST=OFFICE ENCLOSED <= 25 M2_FL=BUILDING STORY 1_SCH=A ERV DOAS SUPPLY FAN INLET NODE,FAN:ONOFF,ALL_ST=OFFICE ENCLOSED <= 25 M2_FL=BUILDING STORY 1_SCH=A ERV SUP FAN,Inlet,1
 Non-Parent Node Connection,NODE 74,FAN:ONOFF,ALL_ST=OFFICE ENCLOSED <= 25 M2_FL=BUILDING STORY 1_SCH=A ERV SUP FAN,Outlet,1
 Non-Parent Node Connection,ALL_ST=OFFICE ENCLOSED <= 25 M2_FL=BUILDING STORY 1_SCH=A ERV DOAS EXHAUST FAN INLET NODE,FAN:ONOFF,ALL_ST=OFFICE ENCLOSED <= 25 M2_FL=BUILDING STORY 1_SCH=A ERV EXH FAN,Inlet,1
 Non-Parent Node Connection,ALL_ST=OFFICE ENCLOSED <= 25 M2_FL=BUILDING STORY 1_SCH=A ERV DOAS EXHAUST FAN OUTLET NODE,FAN:ONOFF,ALL_ST=OFFICE ENCLOSED <= 25 M2_FL=BUILDING STORY 1_SCH=A ERV EXH FAN,Outlet,1
 Non-Parent Node Connection,28GAL ELECTRICITY WATER HEATER - 19KBTU/HR 1.0 THERM EFF ASHPWH EVAP OUTLET - FAN INLET,FAN:ONOFF,FAN ON OFF 1,Inlet,1
 Non-Parent Node Connection,28GAL ELECTRICITY WATER HEATER - 19KBTU/HR 1.0 THERM EFF ASHPWH FAN OUTLET - SPLITTER INLET,FAN:ONOFF,FAN ON OFF 1,Outlet,1
 Non-Parent Node Connection,ALL_ST=WAREHOUSE STORAGE AREA MEDIUM TO BULKY PALLETIZED ITEMS_FL=BUILDING STORY 1_SCH=A ERV DOAS SUPPLY FAN INLET NODE,FAN:ONOFF,ALL_ST=WAREHOUSE STORAGE AREA MEDIUM TO BULKY PALLETIZED ITEMS_FL=BUILDING STORY 1_SCH=A ERV SUP FAN,Inlet,1
 Non-Parent Node Connection,NODE 70,FAN:ONOFF,ALL_ST=WAREHOUSE STORAGE AREA MEDIUM TO BULKY PALLETIZED ITEMS_FL=BUILDING STORY 1_SCH=A ERV SUP FAN,Outlet,1
 Non-Parent Node Connection,ALL_ST=WAREHOUSE STORAGE AREA MEDIUM TO BULKY PALLETIZED ITEMS_FL=BUILDING STORY 1_SCH=A ERV DOAS EXHAUST FAN INLET NODE,FAN:ONOFF,ALL_ST=WAREHOUSE STORAGE AREA MEDIUM TO BULKY PALLETIZED ITEMS_FL=BUILDING STORY 1_SCH=A ERV EXH FAN,Inlet,1
 Non-Parent Node Connection,ALL_ST=WAREHOUSE STORAGE AREA MEDIUM TO BULKY PALLETIZED ITEMS_FL=BUILDING STORY 1_SCH=A ERV DOAS EXHAUST FAN OUTLET NODE,FAN:ONOFF,ALL_ST=WAREHOUSE STORAGE AREA MEDIUM TO BULKY PALLETIZED ITEMS_FL=BUILDING STORY 1_SCH=A ERV EXH FAN,Outlet,1
 Non-Parent Node Connection,ALL_ST=WAREHOUSE STORAGE AREA SMALL HAND-CARRIED ITEMS(4)_FL=BUILDING STORY 1_SCH=A ERV DOAS SUPPLY FAN INLET NODE,FAN:ONOFF,ALL_ST=WAREHOUSE STORAGE AREA SMALL HAND-CARRIED ITEMS(4)_FL=BUILDING STORY 1_SCH=A ERV SUP FAN,Inlet,1
 Non-Parent Node Connection,NODE 72,FAN:ONOFF,ALL_ST=WAREHOUSE STORAGE AREA SMALL HAND-CARRIED ITEMS(4)_FL=BUILDING STORY 1_SCH=A ERV SUP FAN,Outlet,1
 Non-Parent Node Connection,ALL_ST=WAREHOUSE STORAGE AREA SMALL HAND-CARRIED ITEMS(4)_FL=BUILDING STORY 1_SCH=A ERV DOAS EXHAUST FAN INLET NODE,FAN:ONOFF,ALL_ST=WAREHOUSE STORAGE AREA SMALL HAND-CARRIED ITEMS(4)_FL=BUILDING STORY 1_SCH=A ERV EXH FAN,Inlet,1
 Non-Parent Node Connection,ALL_ST=WAREHOUSE STORAGE AREA SMALL HAND-CARRIED ITEMS(4)_FL=BUILDING STORY 1_SCH=A ERV DOAS EXHAUST FAN OUTLET NODE,FAN:ONOFF,ALL_ST=WAREHOUSE STORAGE AREA SMALL HAND-CARRIED ITEMS(4)_FL=BUILDING STORY 1_SCH=A ERV EXH FAN,Outlet,1
 Non-Parent Node Connection,28GAL ELECTRICITY WATER HEATER - 19KBTU/HR 1.0 THERM EFF ASHPWH MIXER OUTLET - EVAP INLET,WATERHEATER:HEATPUMP:PUMPEDCONDENSER INLET AIR MIXER,28GAL ELECTRICITY WATER HEATER - 19KBTU/HR 1.0 THERM EFF ASHPWH,Outlet,1
 Non-Parent Node Connection,28GAL ELECTRICITY WATER HEATER - 19KBTU/HR 1.0 THERM EFF ASHPWH FAN OUTLET - SPLITTER INLET,WATERHEATER:HEATPUMP:PUMPEDCONDENSER-OUTLET AIR SPLITTER,28GAL ELECTRICITY WATER HEATER - 19KBTU/HR 1.0 THERM EFF ASHPWH,Inlet,1
 Non-Parent Node Connection,NODE 75,WATERHEATER:HEATPUMP:PUMPEDCONDENSER-INLET AIR MIXER,28GAL ELECTRICITY WATER HEATER - 19KBTU/HR 1.0 THERM EFF ASHPWH,Inlet,1
 Non-Parent Node Connection,NODE 76,WATERHEATER:HEATPUMP:PUMPEDCONDENSER-OUTLET AIR SPLITTER,28GAL ELECTRICITY WATER HEATER - 19KBTU/HR 1.0 THERM EFF ASHPWH,Outlet,1
 Non-Parent Node Connection,28GAL ELECTRICITY WATER HEATER - 19KBTU/HR 1.0 THERM EFF ASHPWH OUTDOOR AIR,OUTDOORAIR:NODE,OutdoorAir:Node,OutdoorAir,8
 Non-Parent Node Connection,NODE 39,WATERHEATER:MIXED,28GAL ELECTRICITY WATER HEATER - 19KBTU/HR 1.0 THERM EFF,Inlet,1
 Non-Parent Node Connection,NODE 44,WATERHEATER:MIXED,28GAL ELECTRICITY WATER HEATER - 19KBTU/HR 1.0 THERM EFF,Outlet,1
 Non-Parent Node Connection,28GAL ELECTRICITY WATER HEATER - 19KBTU/HR 1.0 THERM EFF ASHPWH CONDENSER OUTLET - TANK INLET,WATERHEATER:MIXED,28GAL ELECTRICITY WATER HEATER - 19KBTU/HR 1.0 THERM EFF,Inlet,2
 Non-Parent Node Connection,28GAL ELECTRICITY WATER HEATER - 19KBTU/HR 1.0 THERM EFF ASHPWH TANK OUTLET - CONDENSER INLET,WATERHEATER:MIXED,28GAL ELECTRICITY WATER HEATER - 19KBTU/HR 1.0 THERM EFF,Outlet,2
 Non-Parent Node Connection,NODE 38,SETPOINTMANAGER:SCHEDULED,SERVICE HOT WATER SETPOINT MANAGER,Setpoint,1
 Non-Parent Node Connection,NODE 3,SETPOINTMANAGER:MIXEDAIR,NODE 13 OS DEFAULT SPM,Sensor,1
 Non-Parent Node Connection,NODE 67,SETPOINTMANAGER:MIXEDAIR,NODE 13 OS DEFAULT SPM,Sensor,1
 Non-Parent Node Connection,NODE 13,SETPOINTMANAGER:MIXEDAIR,NODE 13 OS DEFAULT SPM,Setpoint,1
 Non-Parent Node Connection,NODE 3,SETPOINTMANAGER:MIXEDAIR,NODE 12 OS DEFAULT SPM,Sensor,1
 Non-Parent Node Connection,NODE 67,SETPOINTMANAGER:MIXEDAIR,NODE 12 OS DEFAULT SPM,Sensor,1
 Non-Parent Node Connection,NODE 12,SETPOINTMANAGER:MIXEDAIR,NODE 12 OS DEFAULT SPM,Setpoint,1
 Non-Parent Node Connection,NODE 3,SETPOINTMANAGER:MIXEDAIR,NODE 67 OS DEFAULT SPM,Sensor,1
 Non-Parent Node Connection,NODE 67,SETPOINTMANAGER:MIXEDAIR,NODE 67 OS DEFAULT SPM,Sensor,1
 Non-Parent Node Connection,NODE 67,SETPOINTMANAGER:MIXEDAIR,NODE 67 OS DEFAULT SPM,Setpoint,1
 Non-Parent Node Connection,NODE 27,SETPOINTMANAGER:MIXEDAIR,NODE 35 OS DEFAULT SPM,Sensor,1
 Non-Parent Node Connection,NODE 57,SETPOINTMANAGER:MIXEDAIR,NODE 35 OS DEFAULT SPM,Sensor,1
 Non-Parent Node Connection,NODE 35,SETPOINTMANAGER:MIXEDAIR,NODE 35 OS DEFAULT SPM,Setpoint,1
 Non-Parent Node Connection,NODE 27,SETPOINTMANAGER:MIXEDAIR,NODE 34 OS DEFAULT SPM,Sensor,1
 Non-Parent Node Connection,NODE 57,SETPOINTMANAGER:MIXEDAIR,NODE 34 OS DEFAULT SPM,Sensor,1
 Non-Parent Node Connection,NODE 34,SETPOINTMANAGER:MIXEDAIR,NODE 34 OS DEFAULT SPM,Setpoint,1
 Non-Parent Node Connection,NODE 27,SETPOINTMANAGER:MIXEDAIR,NODE 57 OS DEFAULT SPM,Sensor,1
 Non-Parent Node Connection,NODE 57,SETPOINTMANAGER:MIXEDAIR,NODE 57 OS DEFAULT SPM,Sensor,1
 Non-Parent Node Connection,NODE 57,SETPOINTMANAGER:MIXEDAIR,NODE 57 OS DEFAULT SPM,Setpoint,1
 Non-Parent Node Connection,NODE 16,SETPOINTMANAGER:MIXEDAIR,NODE 24 OS DEFAULT SPM,Sensor,1
 Non-Parent Node Connection,NODE 65,SETPOINTMANAGER:MIXEDAIR,NODE 24 OS DEFAULT SPM,Sensor,1
 Non-Parent Node Connection,NODE 24,SETPOINTMANAGER:MIXEDAIR,NODE 24 OS DEFAULT SPM,Setpoint,1
 Non-Parent Node Connection,NODE 16,SETPOINTMANAGER:MIXEDAIR,NODE 23 OS DEFAULT SPM,Sensor,1
 Non-Parent Node Connection,NODE 65,SETPOINTMANAGER:MIXEDAIR,NODE 23 OS DEFAULT SPM,Sensor,1
 Non-Parent Node Connection,NODE 23,SETPOINTMANAGER:MIXEDAIR,NODE 23 OS DEFAULT SPM,Setpoint,1
 Non-Parent Node Connection,NODE 16,SETPOINTMANAGER:MIXEDAIR,NODE 65 OS DEFAULT SPM,Sensor,1
 Non-Parent Node Connection,NODE 65,SETPOINTMANAGER:MIXEDAIR,NODE 65 OS DEFAULT SPM,Sensor,1
 Non-Parent Node Connection,NODE 65,SETPOINTMANAGER:MIXEDAIR,NODE 65 OS DEFAULT SPM,Setpoint,1
 Non-Parent Node Connection,NODE 13,SETPOINTMANAGER:OUTDOORAIRPRETREAT,SETPOINT MANAGER OUTDOOR AIR PRETREAT 1,Sensor,1
 Non-Parent Node Connection,NODE 9,SETPOINTMANAGER:OUTDOORAIRPRETREAT,SETPOINT MANAGER OUTDOOR AIR PRETREAT 1,Sensor,1
 Non-Parent Node Connection,NODE 2,SETPOINTMANAGER:OUTDOORAIRPRETREAT,SETPOINT MANAGER OUTDOOR AIR PRETREAT 1,Sensor,1
 Non-Parent Node Connection,NODE 58,SETPOINTMANAGER:OUTDOORAIRPRETREAT,SETPOINT MANAGER OUTDOOR AIR PRETREAT 1,Setpoint,1
 Non-Parent Node Connection,NODE 35,SETPOINTMANAGER:OUTDOORAIRPRETREAT,SETPOINT MANAGER OUTDOOR AIR PRETREAT 2,Sensor,1
 Non-Parent Node Connection,NODE 31,SETPOINTMANAGER:OUTDOORAIRPRETREAT,SETPOINT MANAGER OUTDOOR AIR PRETREAT 2,Sensor,1
 Non-Parent Node Connection,NODE 26,SETPOINTMANAGER:OUTDOORAIRPRETREAT,SETPOINT MANAGER OUTDOOR AIR PRETREAT 2,Sensor,1
 Non-Parent Node Connection,NODE 60,SETPOINTMANAGER:OUTDOORAIRPRETREAT,SETPOINT MANAGER OUTDOOR AIR PRETREAT 2,Setpoint,1
 Non-Parent Node Connection,NODE 24,SETPOINTMANAGER:OUTDOORAIRPRETREAT,SETPOINT MANAGER OUTDOOR AIR PRETREAT 3,Sensor,1
 Non-Parent Node Connection,NODE 20,SETPOINTMANAGER:OUTDOORAIRPRETREAT,SETPOINT MANAGER OUTDOOR AIR PRETREAT 3,Sensor,1
 Non-Parent Node Connection,NODE 15,SETPOINTMANAGER:OUTDOORAIRPRETREAT,SETPOINT MANAGER OUTDOOR AIR PRETREAT 3,Sensor,1
 Non-Parent Node Connection,NODE 62,SETPOINTMANAGER:OUTDOORAIRPRETREAT,SETPOINT MANAGER OUTDOOR AIR PRETREAT 3,Setpoint,1
 Non-Parent Node Connection,NODE 3,SETPOINTMANAGER:WARMEST,NODE 3 SAT STPMANAGER,Setpoint,1
 Non-Parent Node Connection,NODE 27,SETPOINTMANAGER:WARMEST,NODE 27 SAT STPMANAGER,Setpoint,1
 Non-Parent Node Connection,NODE 16,SETPOINTMANAGER:WARMEST,NODE 16 SAT STPMANAGER,Setpoint,1
 Non-Parent Node Connection,NODE 45,PIPE:ADIABATIC,PIPE ADIABATIC 1,Inlet,1
 Non-Parent Node Connection,NODE 46,PIPE:ADIABATIC,PIPE ADIABATIC 1,Outlet,1
 Non-Parent Node Connection,NODE 48,PIPE:ADIABATIC,PIPE ADIABATIC 3,Inlet,1
 Non-Parent Node Connection,NODE 38,PIPE:ADIABATIC,PIPE ADIABATIC 3,Outlet,1
 Non-Parent Node Connection,NODE 40,PIPE:ADIABATIC,PIPE ADIABATIC 4,Inlet,1
 Non-Parent Node Connection,NODE 49,PIPE:ADIABATIC,PIPE ADIABATIC 4,Outlet,1
 Non-Parent Node Connection,NODE 42,PIPE:ADIABATIC,PIPE ADIABATIC 2,Inlet,1
 Non-Parent Node Connection,NODE 47,PIPE:ADIABATIC,PIPE ADIABATIC 2,Outlet,1
 Non-Parent Node Connection,MAIN SERVICE WATER LOOP DEMAND BYPASS PIPE INLET NODE,PIPE:ADIABATIC,MAIN SERVICE WATER LOOP DEMAND BYPASS PIPE,Inlet,1
 Non-Parent Node Connection,MAIN SERVICE WATER LOOP DEMAND BYPASS PIPE OUTLET NODE,PIPE:ADIABATIC,MAIN SERVICE WATER LOOP DEMAND BYPASS PIPE,Outlet,1
 Non-Parent Node Connection,NODE 50,PIPE:ADIABATIC,PIPE ADIABATIC 5,Inlet,1
 Non-Parent Node Connection,NODE 41,PIPE:ADIABATIC,PIPE ADIABATIC 5,Outlet,1
 Non-Parent Node Connection,NODE 49,CONNECTOR:SPLITTER,MAIN SERVICE WATER LOOP DEMAND SPLITTER,Inlet,1
 Non-Parent Node Connection,NODE 42,CONNECTOR:SPLITTER,MAIN SERVICE WATER LOOP DEMAND SPLITTER,Outlet,1
 Non-Parent Node Connection,NODE 51,CONNECTOR:SPLITTER,MAIN SERVICE WATER LOOP DEMAND SPLITTER,Outlet,1
 Non-Parent Node Connection,NODE 53,CONNECTOR:SPLITTER,MAIN SERVICE WATER LOOP DEMAND SPLITTER,Outlet,1
 Non-Parent Node Connection,NODE 55,CONNECTOR:SPLITTER,MAIN SERVICE WATER LOOP DEMAND SPLITTER,Outlet,1
 Non-Parent Node Connection,MAIN SERVICE WATER LOOP DEMAND BYPASS PIPE INLET NODE,CONNECTOR:SPLITTER,MAIN SERVICE WATER LOOP DEMAND SPLITTER,Outlet,1
 Non-Parent Node Connection,NODE 50,CONNECTOR:MIXER,MAIN SERVICE WATER LOOP DEMAND MIXER,Outlet,1
 Non-Parent Node Connection,NODE 47,CONNECTOR:MIXER,MAIN SERVICE WATER LOOP DEMAND MIXER,Inlet,1
 Non-Parent Node Connection,NODE 52,CONNECTOR:MIXER,MAIN SERVICE WATER LOOP DEMAND MIXER,Inlet,1
 Non-Parent Node Connection,NODE 54,CONNECTOR:MIXER,MAIN SERVICE WATER LOOP DEMAND MIXER,Inlet,1
 Non-Parent Node Connection,NODE 56,CONNECTOR:MIXER,MAIN SERVICE WATER LOOP DEMAND MIXER,Inlet,1
 Non-Parent Node Connection,MAIN SERVICE WATER LOOP DEMAND BYPASS PIPE OUTLET NODE,CONNECTOR:MIXER,MAIN SERVICE WATER LOOP DEMAND MIXER,Inlet,1
 Non-Parent Node Connection,NODE 43,CONNECTOR:SPLITTER,MAIN SERVICE WATER LOOP SUPPLY SPLITTER,Inlet,1
 Non-Parent Node Connection,NODE 39,CONNECTOR:SPLITTER,MAIN SERVICE WATER LOOP SUPPLY SPLITTER,Outlet,1
 Non-Parent Node Connection,NODE 45,CONNECTOR:SPLITTER,MAIN SERVICE WATER LOOP SUPPLY SPLITTER,Outlet,1
 Non-Parent Node Connection,NODE 48,CONNECTOR:MIXER,MAIN SERVICE WATER LOOP SUPPLY MIXER,Outlet,1
 Non-Parent Node Connection,NODE 44,CONNECTOR:MIXER,MAIN SERVICE WATER LOOP SUPPLY MIXER,Inlet,1
 Non-Parent Node Connection,NODE 46,CONNECTOR:MIXER,MAIN SERVICE WATER LOOP SUPPLY MIXER,Inlet,1
 Non-Parent Node Connection,NODE 51,WATERUSE:CONNECTIONS,WATER USE CONNECTIONS 1,Inlet,1
 Non-Parent Node Connection,NODE 52,WATERUSE:CONNECTIONS,WATER USE CONNECTIONS 1,Outlet,1
 Non-Parent Node Connection,NODE 53,WATERUSE:CONNECTIONS,WATER USE CONNECTIONS 2,Inlet,1
 Non-Parent Node Connection,NODE 54,WATERUSE:CONNECTIONS,WATER USE CONNECTIONS 2,Outlet,1
 Non-Parent Node Connection,NODE 55,WATERUSE:CONNECTIONS,WATER USE CONNECTIONS 3,Inlet,1
 Non-Parent Node Connection,NODE 56,WATERUSE:CONNECTIONS,WATER USE CONNECTIONS 3,Outlet,1
 Non-Parent Node Connection,NODE 5,AIRLOOPHVAC:ZONESPLITTER,AIR LOOP HVAC ZONE SPLITTER 1,Inlet,1
 Non-Parent Node Connection,NODE 68,AIRLOOPHVAC:ZONESPLITTER,AIR LOOP HVAC ZONE SPLITTER 1,Outlet,1
 Non-Parent Node Connection,NODE 28,AIRLOOPHVAC:ZONESPLITTER,AIR LOOP HVAC ZONE SPLITTER 3,Inlet,1
 Non-Parent Node Connection,NODE 64,AIRLOOPHVAC:ZONESPLITTER,AIR LOOP HVAC ZONE SPLITTER 3,Outlet,1
 Non-Parent Node Connection,NODE 17,AIRLOOPHVAC:ZONESPLITTER,AIR LOOP HVAC ZONE SPLITTER 2,Inlet,1
 Non-Parent Node Connection,NODE 66,AIRLOOPHVAC:ZONESPLITTER,AIR LOOP HVAC ZONE SPLITTER 2,Outlet,1
 Non-Parent Node Connection,ALL_ST=OFFICE ENCLOSED <= 25 M2_FL=BUILDING STORY 1_SCH=A ERV DOAS OA NODE,HEATEXCHANGER:AIRTOAIR:SENSIBLEANDLATENT,ALL_ST=OFFICE ENCLOSED <= 25 M2_FL=BUILDING STORY 1_SCH=A ERV HX,Inlet,1
 Non-Parent Node Connection,ALL_ST=OFFICE ENCLOSED <= 25 M2_FL=BUILDING STORY 1_SCH=A ERV DOAS SUPPLY FAN INLET NODE,HEATEXCHANGER:AIRTOAIR:SENSIBLEANDLATENT,ALL_ST=OFFICE ENCLOSED <= 25 M2_FL=BUILDING STORY 1_SCH=A ERV HX,Outlet,1
 Non-Parent Node Connection,NODE 73,HEATEXCHANGER:AIRTOAIR:SENSIBLEANDLATENT,ALL_ST=OFFICE ENCLOSED <= 25 M2_FL=BUILDING STORY 1_SCH=A ERV HX,Inlet,2
 Non-Parent Node Connection,ALL_ST=OFFICE ENCLOSED <= 25 M2_FL=BUILDING STORY 1_SCH=A ERV DOAS EXHAUST FAN INLET NODE,HEATEXCHANGER:AIRTOAIR:SENSIBLEANDLATENT,ALL_ST=OFFICE ENCLOSED <= 25 M2_FL=BUILDING STORY 1_SCH=A ERV HX,Outlet,2
 Non-Parent Node Connection,ALL_ST=WAREHOUSE STORAGE AREA MEDIUM TO BULKY PALLETIZED ITEMS_FL=BUILDING STORY 1_SCH=A ERV DOAS OA NODE,HEATEXCHANGER:AIRTOAIR:SENSIBLEANDLATENT,ALL_ST=WAREHOUSE STORAGE AREA MEDIUM TO BULKY PALLETIZED ITEMS_FL=BUILDING STORY 1_SCH=A ERV HX,Inlet,1
 Non-Parent Node Connection,ALL_ST=WAREHOUSE STORAGE AREA MEDIUM TO BULKY PALLETIZED ITEMS_FL=BUILDING STORY 1_SCH=A ERV DOAS SUPPLY FAN INLET NODE,HEATEXCHANGER:AIRTOAIR:SENSIBLEANDLATENT,ALL_ST=WAREHOUSE STORAGE AREA MEDIUM TO BULKY PALLETIZED ITEMS_FL=BUILDING STORY 1_SCH=A ERV HX,Outlet,1
 Non-Parent Node Connection,NODE 69,HEATEXCHANGER:AIRTOAIR:SENSIBLEANDLATENT,ALL_ST=WAREHOUSE STORAGE AREA MEDIUM TO BULKY PALLETIZED ITEMS_FL=BUILDING STORY 1_SCH=A ERV HX,Inlet,2
 Non-Parent Node Connection,ALL_ST=WAREHOUSE STORAGE AREA MEDIUM TO BULKY PALLETIZED ITEMS_FL=BUILDING STORY 1_SCH=A ERV DOAS EXHAUST FAN INLET NODE,HEATEXCHANGER:AIRTOAIR:SENSIBLEANDLATENT,ALL_ST=WAREHOUSE STORAGE AREA MEDIUM TO BULKY PALLETIZED ITEMS_FL=BUILDING STORY 1_SCH=A ERV HX,Outlet,2
 Non-Parent Node Connection,ALL_ST=WAREHOUSE STORAGE AREA SMALL HAND-CARRIED ITEMS(4)_FL=BUILDING STORY 1_SCH=A ERV DOAS OA NODE,HEATEXCHANGER:AIRTOAIR:SENSIBLEANDLATENT,ALL_ST=WAREHOUSE STORAGE AREA SMALL HAND-CARRIED ITEMS(4)_FL=BUILDING STORY 1_SCH=A ERV HX,Inlet,1
 Non-Parent Node Connection,ALL_ST=WAREHOUSE STORAGE AREA SMALL HAND-CARRIED ITEMS(4)_FL=BUILDING STORY 1_SCH=A ERV DOAS SUPPLY FAN INLET NODE,HEATEXCHANGER:AIRTOAIR:SENSIBLEANDLATENT,ALL_ST=WAREHOUSE STORAGE AREA SMALL HAND-CARRIED ITEMS(4)_FL=BUILDING STORY 1_SCH=A ERV HX,Outlet,1
 Non-Parent Node Connection,NODE 71,HEATEXCHANGER:AIRTOAIR:SENSIBLEANDLATENT,ALL_ST=WAREHOUSE STORAGE AREA SMALL HAND-CARRIED ITEMS(4)_FL=BUILDING STORY 1_SCH=A ERV HX,Inlet,2
 Non-Parent Node Connection,ALL_ST=WAREHOUSE STORAGE AREA SMALL HAND-CARRIED ITEMS(4)_FL=BUILDING STORY 1_SCH=A ERV DOAS EXHAUST FAN INLET NODE,HEATEXCHANGER:AIRTOAIR:SENSIBLEANDLATENT,ALL_ST=WAREHOUSE STORAGE AREA SMALL HAND-CARRIED ITEMS(4)_FL=BUILDING STORY 1_SCH=A ERV HX,Outlet,2
 Non-Parent Node Connection,NODE 9,HEATEXCHANGER:AIRTOAIR:SENSIBLEANDLATENT,SYS_3_PSZ ALL_ST=OFFICE ENCLOSED <= 25 M2_FL=BUILDING STORY 1_SCH=A ERV,Inlet,1
 Non-Parent Node Connection,NODE 58,HEATEXCHANGER:AIRTOAIR:SENSIBLEANDLATENT,SYS_3_PSZ ALL_ST=OFFICE ENCLOSED <= 25 M2_FL=BUILDING STORY 1_SCH=A ERV,Outlet,1
 Non-Parent Node Connection,NODE 59,HEATEXCHANGER:AIRTOAIR:SENSIBLEANDLATENT,SYS_3_PSZ ALL_ST=OFFICE ENCLOSED <= 25 M2_FL=BUILDING STORY 1_SCH=A ERV,Inlet,2
 Non-Parent Node Connection,NODE 10,HEATEXCHANGER:AIRTOAIR:SENSIBLEANDLATENT,SYS_3_PSZ ALL_ST=OFFICE ENCLOSED <= 25 M2_FL=BUILDING STORY 1_SCH=A ERV,Outlet,2
 Non-Parent Node Connection,NODE 31,HEATEXCHANGER:AIRTOAIR:SENSIBLEANDLATENT,SYS_4_PSZ_ALL_ST=WAREHOUSE STORAGE AREA MEDIUM TO BULKY PALLETIZED ITEMS_FL=BUILDING STORY 1_SCH=A ERV,Inlet,1
 Non-Parent Node Connection,NODE 60,HEATEXCHANGER:AIRTOAIR:SENSIBLEANDLATENT,SYS_4_PSZ_ALL_ST=WAREHOUSE STORAGE AREA MEDIUM TO BULKY PALLETIZED ITEMS_FL=BUILDING STORY 1_SCH=A ERV,Outlet,1
 Non-Parent Node Connection,NODE 61,HEATEXCHANGER:AIRTOAIR:SENSIBLEANDLATENT,SYS_4_PSZ_ALL_ST=WAREHOUSE STORAGE AREA MEDIUM TO BULKY PALLETIZED ITEMS_FL=BUILDING STORY 1_SCH=A ERV,Inlet,2
 Non-Parent Node Connection,NODE 32,HEATEXCHANGER:AIRTOAIR:SENSIBLEANDLATENT,SYS_4_PSZ_ALL_ST=WAREHOUSE STORAGE AREA MEDIUM TO BULKY PALLETIZED ITEMS_FL=BUILDING STORY 1_SCH=A ERV,Outlet,2
 Non-Parent Node Connection,NODE 20,HEATEXCHANGER:AIRTOAIR:SENSIBLEANDLATENT,SYS_4_PSZ_ALL_ST=WAREHOUSE STORAGE AREA SMALL HAND-CARRIED ITEMS(4)_FL=BUILDING STORY 1_SCH=A ERV,Inlet,1
 Non-Parent Node Connection,NODE 62,HEATEXCHANGER:AIRTOAIR:SENSIBLEANDLATENT,SYS_4_PSZ_ALL_ST=WAREHOUSE STORAGE AREA SMALL HAND-CARRIED ITEMS(4)_FL=BUILDING STORY 1_SCH=A ERV,Outlet,1
 Non-Parent Node Connection,NODE 63,HEATEXCHANGER:AIRTOAIR:SENSIBLEANDLATENT,SYS_4_PSZ_ALL_ST=WAREHOUSE STORAGE AREA SMALL HAND-CARRIED ITEMS(4)_FL=BUILDING STORY 1_SCH=A ERV,Inlet,2
 Non-Parent Node Connection,NODE 21,HEATEXCHANGER:AIRTOAIR:SENSIBLEANDLATENT,SYS_4_PSZ_ALL_ST=WAREHOUSE STORAGE AREA SMALL HAND-CARRIED ITEMS(4)_FL=BUILDING STORY 1_SCH=A ERV,Outlet,2
 Non-Parent Node Connection,NODE 8,AIRTERMINAL:SINGLEDUCT:VAV:HEATANDCOOL:NOREHEAT,ALL_ST=OFFICE ENCLOSED <= 25 M2_FL=BUILDING STORY 1_SCH=A VAV TERMINAL,Outlet,1
 Non-Parent Node Connection,NODE 68,AIRTERMINAL:SINGLEDUCT:VAV:HEATANDCOOL:NOREHEAT,ALL_ST=OFFICE ENCLOSED <= 25 M2_FL=BUILDING STORY 1_SCH=A VAV TERMINAL,Inlet,1
 Non-Parent Node Connection,NODE 30,AIRTERMINAL:SINGLEDUCT:VAV:HEATANDCOOL:NOREHEAT,ALL_ST=WAREHOUSE STORAGE AREA MEDIUM TO BULKY PALLETIZED ITEMS_FL=BUILDING STORY 1_SCH=A VAV TERMINAL,Outlet,1
 Non-Parent Node Connection,NODE 64,AIRTERMINAL:SINGLEDUCT:VAV:HEATANDCOOL:NOREHEAT,ALL_ST=WAREHOUSE STORAGE AREA MEDIUM TO BULKY PALLETIZED ITEMS_FL=BUILDING STORY 1_SCH=A VAV TERMINAL,Inlet,1
 Non-Parent Node Connection,NODE 19,AIRTERMINAL:SINGLEDUCT:VAV:HEATANDCOOL:NOREHEAT,ALL_ST=WAREHOUSE STORAGE AREA SMALL HAND-CARRIED ITEMS(4)_FL=BUILDING STORY 1_SCH=A VAV TERMINAL,Outlet,1
 Non-Parent Node Connection,NODE 66,AIRTERMINAL:SINGLEDUCT:VAV:HEATANDCOOL:NOREHEAT,ALL_ST=WAREHOUSE STORAGE AREA SMALL HAND-CARRIED ITEMS(4)_FL=BUILDING STORY 1_SCH=A VAV TERMINAL,Inlet,1
 Non-Parent Node Connection,NODE 6,AIRLOOPHVAC:ZONEMIXER,AIR LOOP HVAC ZONE MIXER 1,Outlet,1
 Non-Parent Node Connection,NODE 14,AIRLOOPHVAC:ZONEMIXER,AIR LOOP HVAC ZONE MIXER 1,Inlet,1
 Non-Parent Node Connection,NODE 29,AIRLOOPHVAC:ZONEMIXER,AIR LOOP HVAC ZONE MIXER 3,Outlet,1
 Non-Parent Node Connection,NODE 36,AIRLOOPHVAC:ZONEMIXER,AIR LOOP HVAC ZONE MIXER 3,Inlet,1
 Non-Parent Node Connection,NODE 18,AIRLOOPHVAC:ZONEMIXER,AIR LOOP HVAC ZONE MIXER 2,Outlet,1
 Non-Parent Node Connection,NODE 25,AIRLOOPHVAC:ZONEMIXER,AIR LOOP HVAC ZONE MIXER 2,Inlet,1
 Non-Parent Node Connection,NODE 13,OUTDOORAIR:MIXER,AIR LOOP HVAC OUTDOOR AIR SYSTEM 1 OUTDOOR AIR MIXER,Outlet,1
 Non-Parent Node Connection,NODE 58,OUTDOORAIR:MIXER,AIR LOOP HVAC OUTDOOR AIR SYSTEM 1 OUTDOOR AIR MIXER,Inlet,1
 Non-Parent Node Connection,NODE 59,OUTDOORAIR:MIXER,AIR LOOP HVAC OUTDOOR AIR SYSTEM 1 OUTDOOR AIR MIXER,ReliefAir,1
 Non-Parent Node Connection,NODE 2,OUTDOORAIR:MIXER,AIR LOOP HVAC OUTDOOR AIR SYSTEM 1 OUTDOOR AIR MIXER,Inlet,1
 Non-Parent Node Connection,NODE 35,OUTDOORAIR:MIXER,AIR LOOP HVAC OUTDOOR AIR SYSTEM 3 OUTDOOR AIR MIXER,Outlet,1
 Non-Parent Node Connection,NODE 60,OUTDOORAIR:MIXER,AIR LOOP HVAC OUTDOOR AIR SYSTEM 3 OUTDOOR AIR MIXER,Inlet,1
 Non-Parent Node Connection,NODE 61,OUTDOORAIR:MIXER,AIR LOOP HVAC OUTDOOR AIR SYSTEM 3 OUTDOOR AIR MIXER,ReliefAir,1
 Non-Parent Node Connection,NODE 26,OUTDOORAIR:MIXER,AIR LOOP HVAC OUTDOOR AIR SYSTEM 3 OUTDOOR AIR MIXER,Inlet,1
 Non-Parent Node Connection,NODE 24,OUTDOORAIR:MIXER,AIR LOOP HVAC OUTDOOR AIR SYSTEM 2 OUTDOOR AIR MIXER,Outlet,1
 Non-Parent Node Connection,NODE 62,OUTDOORAIR:MIXER,AIR LOOP HVAC OUTDOOR AIR SYSTEM 2 OUTDOOR AIR MIXER,Inlet,1
 Non-Parent Node Connection,NODE 63,OUTDOORAIR:MIXER,AIR LOOP HVAC OUTDOOR AIR SYSTEM 2 OUTDOOR AIR MIXER,ReliefAir,1
 Non-Parent Node Connection,NODE 15,OUTDOORAIR:MIXER,AIR LOOP HVAC OUTDOOR AIR SYSTEM 2 OUTDOOR AIR MIXER,Inlet,1
 Non-Parent Node Connection,NODE 13,CONTROLLER:OUTDOORAIR,CONTROLLER OUTDOOR AIR 1,Sensor,1
 Non-Parent Node Connection,NODE 9,CONTROLLER:OUTDOORAIR,CONTROLLER OUTDOOR AIR 1,Actuator,1
 Non-Parent Node Connection,NODE 59,CONTROLLER:OUTDOORAIR,CONTROLLER OUTDOOR AIR 1,Actuator,1
 Non-Parent Node Connection,NODE 2,CONTROLLER:OUTDOORAIR,CONTROLLER OUTDOOR AIR 1,Sensor,1
 Non-Parent Node Connection,NODE 35,CONTROLLER:OUTDOORAIR,CONTROLLER OUTDOOR AIR 3,Sensor,1
 Non-Parent Node Connection,NODE 31,CONTROLLER:OUTDOORAIR,CONTROLLER OUTDOOR AIR 3,Actuator,1
 Non-Parent Node Connection,NODE 61,CONTROLLER:OUTDOORAIR,CONTROLLER OUTDOOR AIR 3,Actuator,1
 Non-Parent Node Connection,NODE 26,CONTROLLER:OUTDOORAIR,CONTROLLER OUTDOOR AIR 3,Sensor,1
 Non-Parent Node Connection,NODE 24,CONTROLLER:OUTDOORAIR,CONTROLLER OUTDOOR AIR 2,Sensor,1
 Non-Parent Node Connection,NODE 20,CONTROLLER:OUTDOORAIR,CONTROLLER OUTDOOR AIR 2,Actuator,1
 Non-Parent Node Connection,NODE 63,CONTROLLER:OUTDOORAIR,CONTROLLER OUTDOOR AIR 2,Actuator,1
 Non-Parent Node Connection,NODE 15,CONTROLLER:OUTDOORAIR,CONTROLLER OUTDOOR AIR 2,Sensor,1
 Non-Parent Node Connection,NODE 12,COIL:HEATING:ELECTRIC,COIL HEATING ELECTRIC 1,Inlet,1
 Non-Parent Node Connection,NODE 67,COIL:HEATING:ELECTRIC,COIL HEATING ELECTRIC 1,Outlet,1
 Non-Parent Node Connection,NODE 3,COIL:HEATING:ELECTRIC,COIL HEATING ELECTRIC 1,Sensor,1
 Non-Parent Node Connection,NODE 34,COIL:HEATING:ELECTRIC,COIL HEATING ELECTRIC 3,Inlet,1
 Non-Parent Node Connection,NODE 57,COIL:HEATING:ELECTRIC,COIL HEATING ELECTRIC 3,Outlet,1
 Non-Parent Node Connection,NODE 27,COIL:HEATING:ELECTRIC,COIL HEATING ELECTRIC 3,Sensor,1
 Non-Parent Node Connection,NODE 23,COIL:HEATING:ELECTRIC,COIL HEATING ELECTRIC 2,Inlet,1
 Non-Parent Node Connection,NODE 65,COIL:HEATING:ELECTRIC,COIL HEATING ELECTRIC 2,Outlet,1
 Non-Parent Node Connection,NODE 16,COIL:HEATING:ELECTRIC,COIL HEATING ELECTRIC 2,Sensor,1
 Non-Parent Node Connection,NODE 37,PUMP:CONSTANTSPEED,SERVICE WATER LOOP PUMP,Inlet,1
 Non-Parent Node Connection,NODE 43,PUMP:CONSTANTSPEED,SERVICE WATER LOOP PUMP,Outlet,1
