Program Version,EnergyPlus, Version 8.9.0-eba93e8e1b, YMD=2019.08.13 20:52
! <Version>, Version ID
 Version, 8.9
! <Timesteps per Hour>, #TimeSteps, Minutes per TimeStep {minutes}
 Timesteps per Hour,  4, 15
! <System Convergence Limits>, Minimum System TimeStep {minutes}, Max HVAC Iterations, Minimum Plant Iterations, Maximum Plant Iterations
 System Convergence Limits, 1, 20, 2, 8
! <Simulation Control>, Do Zone Sizing, Do System Sizing, Do Plant Sizing, Do Design Days, Do Weather Simulation, Do HVAC Sizing Simulation
 Simulation Control, Yes, Yes, Yes, No, Yes, No
! <Output Reporting Tolerances>, Tolerance for Time Heating Setpoint Not Met, Tolerance for Zone Cooling Setpoint Not Met Time
 Output Reporting Tolerances, 1.000, 1.000, 
! <Site:GroundTemperature:BuildingSurface>,Jan{C},Feb{C},Mar{C},Apr{C},May{C},Jun{C},Jul{C},Aug{C},Sep{C},Oct{C},Nov{C},Dec{C}
 Site:GroundTemperature:BuildingSurface,  19.53,  19.50,  19.54,  19.60,  20.00,  21.64,  22.23,  22.38,  21.45,  20.12,  19.80,  19.63
! <Site:GroundTemperature:FCfactorMethod>,Jan{C},Feb{C},Mar{C},Apr{C},May{C},Jun{C},Jul{C},Aug{C},Sep{C},Oct{C},Nov{C},Dec{C}
 Site:GroundTemperature:FCfactorMethod,   0.43,  -0.56,   1.20,   3.96,  11.16,  16.72,  20.47,  21.61,  19.67,  15.35,   9.58,   4.23
! <Site:GroundTemperature:Shallow>,Jan{C},Feb{C},Mar{C},Apr{C},May{C},Jun{C},Jul{C},Aug{C},Sep{C},Oct{C},Nov{C},Dec{C}
 Site:GroundTemperature:Shallow,  13.00,  13.00,  13.00,  13.00,  13.00,  13.00,  13.00,  13.00,  13.00,  13.00,  13.00,  13.00
! <Site:GroundTemperature:Deep>,Jan{C},Feb{C},Mar{C},Apr{C},May{C},Jun{C},Jul{C},Aug{C},Sep{C},Oct{C},Nov{C},Dec{C}
 Site:GroundTemperature:Deep,  16.00,  16.00,  16.00,  16.00,  16.00,  16.00,  16.00,  16.00,  16.00,  16.00,  16.00,  16.00
! <Site:GroundReflectance>,Jan{dimensionless},Feb{dimensionless},Mar{dimensionless},Apr{dimensionless},May{dimensionless},Jun{dimensionless},Jul{dimensionless},Aug{dimensionless},Sep{dimensionless},Oct{dimensionless},Nov{dimensionless},Dec{dimensionless}
 Site:GroundReflectance,  0.20,  0.20,  0.20,  0.20,  0.20,  0.20,  0.20,  0.20,  0.20,  0.20,  0.20,  0.20
! <Site:GroundReflectance:SnowModifier>, Normal, Daylighting {dimensionless}
 Site:GroundReflectance:SnowModifier,   1.000,   1.000
! <Site:GroundReflectance:Snow>,Jan{dimensionless},Feb{dimensionless},Mar{dimensionless},Apr{dimensionless},May{dimensionless},Jun{dimensionless},Jul{dimensionless},Aug{dimensionless},Sep{dimensionless},Oct{dimensionless},Nov{dimensionless},Dec{dimensionless}
 Site:GroundReflectance:Snow,  0.20,  0.20,  0.20,  0.20,  0.20,  0.20,  0.20,  0.20,  0.20,  0.20,  0.20,  0.20
! <Site:GroundReflectance:Snow:Daylighting>,Jan{dimensionless},Feb{dimensionless},Mar{dimensionless},Apr{dimensionless},May{dimensionless},Jun{dimensionless},Jul{dimensionless},Aug{dimensionless},Sep{dimensionless},Oct{dimensionless},Nov{dimensionless},Dec{dimensionless}
 Site:GroundReflectance:Snow:Daylighting,  0.20,  0.20,  0.20,  0.20,  0.20,  0.20,  0.20,  0.20,  0.20,  0.20,  0.20,  0.20
! <Environment:Weather Station>,Wind Sensor Height Above Ground {m},Wind Speed Profile Exponent {},Wind Speed Profile Boundary Layer Thickness {m},Air Temperature Sensor Height Above Ground {m},Wind Speed Modifier Coefficient-Internal,Temperature Modifier Coefficient-Internal
Environment:Weather Station,10.000,0.140,270.000,1.500,1.586,9.750E-003
! <Site:Location>, Location Name, Latitude {N+/S- Deg}, Longitude {E+/W- Deg},  Time Zone Number {GMT+/-}, Elevation {m},  Standard Pressure at Elevation {Pa}, Standard RhoAir at Elevation
Site:Location,Windsor Intl AP ON CAN CWEC2016 WMO#=715380,42.28,-82.96,-5.00,189.60,99068,1.1775
! <Building Information>, Building Name,North Axis {deg},Terrain,  Loads Convergence Tolerance Value,Temperature Convergence Tolerance Value,  Solar Distribution,Maximum Number of Warmup Days,Minimum Number of Warmup Days
 Building Information,SecondarySchool-CAN_ON_Windsor.Intl.AP.715380_CWEC2016.epw created: 2019-08-07 21:57:15 +0000,0.000,City,4.00000E-002,0.20000,FullInteriorAndExterior,25,6
! <Inside Convection Algorithm>, Algorithm {Simple | TARP | CeilingDiffuser | AdaptiveConvectionAlgorithm}
Inside Convection Algorithm,TARP
! <Outside Convection Algorithm>, Algorithm {SimpleCombined | TARP | MoWitt | DOE-2 | AdaptiveConvectionAlgorithm}
Outside Convection Algorithm,TARP
! <Sky Radiance Distribution>, Value {Anisotropic}
Sky Radiance Distribution,Anisotropic
! <Zone Air Solution Algorithm>, Value {ThirdOrderBackwardDifference | AnalyticalSolution | EulerMethod}
 Zone Air Solution Algorithm, AnalyticalSolution
! <Zone Air Carbon Dioxide Balance Simulation>, Simulation {Yes/No}, Carbon Dioxide Concentration
 Zone Air Carbon Dioxide Balance Simulation, No,N/A
! <Zone Air Generic Contaminant Balance Simulation>, Simulation {Yes/No}, Generic Contaminant Concentration
 Zone Air Generic Contaminant Balance Simulation, No,N/A
! <Zone Air Mass Flow Balance Simulation>, Enforce Mass Balance, Adjust Zone Mixing, Adjust Zone Infiltration {AddInfiltration | AdjustInfiltration | None}, Infiltration Zones {MixingSourceZonesOnly | AllZones}
 Zone Air Mass Flow Balance Simulation, No,N/A,N/A,N/A
! <HVACSystemRootFindingAlgorithm>, Value {RegulaFalsi | Bisection | BisectionThenRegulaFalsi | RegulaFalsiThenBisection}
 HVACSystemRootFindingAlgorithm, RegulaFalsi
! <Environment:Site Atmospheric Variation>,Wind Speed Profile Exponent {},Wind Speed Profile Boundary Layer Thickness {m},Air Temperature Gradient Coefficient {K/m}
Environment:Site Atmospheric Variation,0.330,460.000,6.500000E-003
! <Surface Geometry>,Starting Corner,Vertex Input Direction,Coordinate System,Daylight Reference Point Coordinate System,Rectangular (Simple) Surface Coordinate System
 Surface Geometry,UpperLeftCorner,Counterclockwise,RelativeCoordinateSystem,RelativeCoordinateSystem,RelativeToZoneOrigin
! <Surface Heat Transfer Algorithm>, Value {CTF - ConductionTransferFunction | EMPD - MoisturePenetrationDepthConductionTransferFunction | CondFD - ConductionFiniteDifference | HAMT - CombinedHeatAndMoistureFiniteElement} - Description,Inside Surface Max Temperature Limit{C}, Surface Convection Coefficient Lower Limit {W/m2-K}, Surface Convection Coefficient Upper Limit {W/m2-K}
Surface Heat Transfer Algorithm, CTF - ConductionTransferFunction,200,0.10,1000.0
! <Shading Summary>, Number of Fixed Detached Shades, Number of Building Detached Shades, Number of Attached Shades
 Shading Summary,0,0,36
! <Zone Summary>, Number of Zones, Number of Zone Surfaces, Number of SubSurfaces
 Zone Summary,26,393,67
! <Zone Information>,Zone Name,North Axis {deg},Origin X-Coordinate {m},Origin Y-Coordinate {m},Origin Z-Coordinate {m},Centroid X-Coordinate {m},Centroid Y-Coordinate {m},Centroid Z-Coordinate {m},Type,Zone Multiplier,Zone List Multiplier,Minimum X {m},Maximum X {m},Minimum Y {m},Maximum Y {m},Minimum Z {m},Maximum Z {m},Ceiling Height {m},Volume {m3},Zone Inside Convection Algorithm {Simple-Detailed-CeilingDiffuser-TrombeWall},Zone Outside Convection Algorithm {Simple-Detailed-Tarp-MoWitt-DOE-2-BLAST}, Floor Area {m2},Exterior Gross Wall Area {m2},Exterior Net Wall Area {m2},Exterior Window Area {m2}, Number of Surfaces, Number of SubSurfaces, Number of Shading SubSurfaces,  Part of Total Building Area
 Zone Information, ALL_ST=AUDIENCE SEATING AREA PERMANENT - AUDITORIUM_FL=BUILDING STORY 1_SCH=C,0.0,79.00,75.00,0.00,98.00,88.00,4.00,1,1,1,79.00,117.00,75.00,101.00,0.00,8.00,8.00,7904.00,TARP,TARP,988.00,304.00,228.00,76.00,12,2,0,Yes
 Zone Information, ALL_ST=CLASSROOM/LECTURE HALL/TRAINING ROOM OTHER_FL=BUILDING STORY 1_SCH=D,0.0,0.00,0.00,0.00,5.50,44.83,2.00,1,1,1,0.00,11.00,0.00,90.00,0.00,4.00,4.00,1188.00,TARP,TARP,297.00,240.00,180.00,60.00,18,6,6,Yes
 Zone Information, ALL_ST=CLASSROOM/LECTURE HALL/TRAINING ROOM OTHER_FL=BUILDING STORY 1_SCH=D 1,0.0,11.00,14.00,0.00,37.50,58.83,2.00,1,1,1,11.00,64.00,14.00,104.00,0.00,4.00,4.00,5724.00,TARP,TARP,1431.00,636.00,477.00,159.00,18,3,0,Yes
 Zone Information, ALL_ST=CLASSROOM/LECTURE HALL/TRAINING ROOM OTHER_FL=BUILDING STORY 1_SCH=D 2,0.0,11.00,0.00,0.00,37.50,44.83,2.00,1,1,1,11.00,64.00,0.00,90.00,0.00,4.00,4.00,5724.00,TARP,TARP,1431.00,636.00,477.00,159.00,18,3,6,Yes
 Zone Information, ALL_ST=CLASSROOM/LECTURE HALL/TRAINING ROOM OTHER_FL=BUILDING STORY 1_SCH=D 3,0.0,0.00,14.00,0.00,5.50,58.83,2.00,1,1,1,0.00,11.00,14.00,104.00,0.00,4.00,4.00,1188.00,TARP,TARP,297.00,240.00,180.00,60.00,18,6,0,Yes
 Zone Information, ALL_ST=CLASSROOM/LECTURE HALL/TRAINING ROOM OTHER_FL=BUILDING STORY 2_SCH=D,0.0,0.00,14.00,4.00,5.50,58.83,6.00,1,1,1,0.00,11.00,14.00,104.00,4.00,8.00,4.00,1188.00,TARP,TARP,297.00,240.00,180.00,60.00,18,6,0,Yes
 Zone Information, ALL_ST=CLASSROOM/LECTURE HALL/TRAINING ROOM OTHER_FL=BUILDING STORY 2_SCH=D 1,0.0,11.00,0.00,4.00,37.50,44.83,6.00,1,1,1,11.00,64.00,0.00,90.00,4.00,8.00,4.00,5724.00,TARP,TARP,1431.00,636.00,477.00,159.00,18,3,6,Yes
 Zone Information, ALL_ST=CLASSROOM/LECTURE HALL/TRAINING ROOM OTHER_FL=BUILDING STORY 2_SCH=D 2,0.0,11.00,14.00,4.00,37.50,58.83,6.00,1,1,1,11.00,64.00,14.00,104.00,4.00,8.00,4.00,5724.00,TARP,TARP,1431.00,636.00,477.00,159.00,18,3,0,Yes
 Zone Information, ALL_ST=CLASSROOM/LECTURE HALL/TRAINING ROOM OTHER_FL=BUILDING STORY 2_SCH=D 3,0.0,0.00,0.00,4.00,5.50,44.83,6.00,1,1,1,0.00,11.00,0.00,90.00,4.00,8.00,4.00,1188.00,TARP,TARP,297.00,240.00,180.00,60.00,18,6,6,Yes
 Zone Information, ALL_ST=CONFERENCE/MEETING/MULTI-PURPOSE ROOM_FL=BUILDING STORY 1_SCH=C,0.0,117.00,75.00,0.00,129.00,88.00,2.00,1,1,1,117.00,141.00,75.00,101.00,0.00,4.00,4.00,2496.00,TARP,TARP,624.00,200.00,150.00,50.00,6,2,0,Yes
 Zone Information, ALL_ST=FOOD PREPARATION AREA_FL=BUILDING STORY 1_SCH=B,0.0,117.00,66.00,0.00,129.00,70.50,2.00,1,1,1,117.00,141.00,66.00,75.00,0.00,4.00,4.00,864.00,TARP,TARP,216.00,36.00,27.00,9.00,6,1,0,Yes
 Zone Information, ALL_ST=GYMNASIUM/FITNESS CENTRE PLAYING AREA_FL=BUILDING STORY 1_SCH=B,0.0,79.00,14.00,0.00,98.00,40.00,4.00,1,1,1,79.00,117.00,14.00,66.00,0.00,8.00,8.00,15808.00,TARP,TARP,1976.00,0.00,0.00,0.00,10,0,0,Yes
 Zone Information, ALL_ST=GYMNASIUM/FITNESS CENTRE PLAYING AREA_FL=BUILDING STORY 1_SCH=B 1,0.0,117.00,14.00,0.00,129.00,40.00,4.00,1,1,1,117.00,141.00,14.00,66.00,0.00,8.00,8.00,9984.00,TARP,TARP,1248.00,608.00,456.00,152.00,10,4,4,Yes
 Zone Information, ALL_ST=LIBRARY READING AREA_FL=BUILDING STORY 2_SCH=C,0.0,117.00,66.00,4.00,129.00,83.50,6.00,1,1,1,117.00,141.00,66.00,101.00,4.00,8.00,4.00,3360.00,TARP,TARP,840.00,236.00,177.00,59.00,8,2,0,Yes
 Zone Information, ALL_ST=LOBBY - OTHER_FL=BUILDING STORY 1_SCH=C,0.0,64.00,0.00,0.00,71.50,7.00,2.00,1,1,1,64.00,79.00,0.00,14.00,0.00,4.00,4.00,840.00,TARP,TARP,210.00,60.00,45.00,15.00,7,1,2,Yes
 Zone Information, ALL_ST=LOBBY - OTHER_FL=BUILDING STORY 2_SCH=C,0.0,64.00,0.00,4.00,71.50,7.00,6.00,1,1,1,64.00,79.00,0.00,14.00,4.00,8.00,4.00,840.00,TARP,TARP,210.00,60.00,45.00,15.00,7,1,2,Yes
 Zone Information, ALL_ST=OFFICE ENCLOSED <= 25 M2_FL=BUILDING STORY 1_SCH=A,0.0,79.00,0.00,0.00,98.00,7.00,2.00,1,1,1,79.00,117.00,0.00,14.00,0.00,4.00,4.00,2128.00,TARP,TARP,532.00,208.00,156.00,52.00,6,2,2,Yes
 Zone Information, ALL_ST=OFFICE ENCLOSED <= 25 M2_FL=BUILDING STORY 2_SCH=A,0.0,79.00,0.00,4.00,98.00,7.00,6.00,1,1,1,79.00,117.00,0.00,14.00,4.00,8.00,4.00,2128.00,TARP,TARP,532.00,208.00,156.00,52.00,6,2,2,Yes
 Zone Information, WET_ST=WASHROOM - OTHER-SCH-D_FL=BUILDING STORY 1_SCHD,0.0,64.00,90.00,0.00,71.50,97.00,2.00,1,1,1,64.00,79.00,90.00,104.00,0.00,4.00,4.00,840.00,TARP,TARP,210.00,72.00,54.00,18.00,8,2,0,Yes
 Zone Information, WET_ST=WASHROOM - OTHER-SCH-D_FL=BUILDING STORY 2_SCHD,0.0,64.00,90.00,4.00,71.50,97.00,6.00,1,1,1,64.00,79.00,90.00,104.00,4.00,8.00,4.00,840.00,TARP,TARP,210.00,72.00,54.00,18.00,8,2,0,Yes
 Zone Information, WILD_ST=CORRIDOR/TRANSITION AREA OTHER-SCH-D_FL=BUILDING STORY 1_SCH=D,0.0,64.00,14.00,0.00,71.50,52.00,2.00,1,1,1,64.00,79.00,14.00,90.00,0.00,4.00,4.00,4560.00,TARP,TARP,1140.00,140.00,105.00,35.00,14,2,0,Yes
 Zone Information, WILD_ST=CORRIDOR/TRANSITION AREA OTHER-SCH-D_FL=BUILDING STORY 1_SCH=D 1,0.0,0.00,9.00,0.00,32.00,51.83,2.00,1,1,1,0.00,64.00,9.00,95.00,0.00,4.00,4.00,3840.00,TARP,TARP,960.00,60.00,45.00,15.00,24,3,0,Yes
 Zone Information, WILD_ST=CORRIDOR/TRANSITION AREA OTHER-SCH-D_FL=BUILDING STORY 2_SCH=D,0.0,64.00,14.00,4.00,71.50,52.00,6.00,1,1,1,64.00,79.00,14.00,90.00,4.00,8.00,4.00,4560.00,TARP,TARP,1140.00,140.00,105.00,35.00,14,2,0,Yes
 Zone Information, WILD_ST=CORRIDOR/TRANSITION AREA OTHER-SCH-D_FL=BUILDING STORY 2_SCH=D 1,0.0,0.00,9.00,4.00,32.00,51.83,6.00,1,1,1,0.00,64.00,9.00,95.00,4.00,8.00,4.00,3840.00,TARP,TARP,960.00,60.00,45.00,15.00,24,3,0,Yes
 Zone Information, WILD_ST=ELECTRICAL/MECHANICAL ROOM-SCH-D_FL=BUILDING STORY 1_SCH=D,0.0,79.00,66.00,0.00,98.00,70.50,2.00,1,1,1,79.00,117.00,66.00,75.00,0.00,4.00,4.00,1368.00,TARP,TARP,342.00,0.00,0.00,0.00,6,0,0,Yes
 Zone Information, WILD_ST=ELECTRICAL/MECHANICAL ROOM-SCH-D_FL=BUILDING STORY 2_SCH=D,0.0,79.00,66.00,4.00,98.00,70.50,6.00,1,1,1,79.00,117.00,66.00,75.00,4.00,8.00,4.00,1368.00,TARP,TARP,342.00,0.00,0.00,0.00,6,0,0,Yes
! <Zone Internal Gains Nominal>,Zone Name, Floor Area {m2},# Occupants,Area per Occupant {m2/person},Occupant per Area {person/m2},Interior Lighting {W/m2},Electric Load {W/m2},Gas Load {W/m2},Other Load {W/m2},Hot Water Eq {W/m2},Steam Equipment {W/m2},Sum Loads per Area {W/m2},Outdoor Controlled Baseboard Heat
 Zone Internal Gains Nominal, ALL_ST=AUDIENCE SEATING AREA PERMANENT - AUDITORIUM_FL=BUILDING STORY 1_SCH=C,988.00,197.7,4.998,0.200,3.250,1.250,0.000,0.000,0.000,0.000,4.500,No
 Zone Internal Gains Nominal, ALL_ST=CLASSROOM/LECTURE HALL/TRAINING ROOM OTHER_FL=BUILDING STORY 1_SCH=D,297.00,39.6,7.497,0.133,3.800,2.501,0.000,0.000,0.000,0.000,6.301,No
 Zone Internal Gains Nominal, ALL_ST=CLASSROOM/LECTURE HALL/TRAINING ROOM OTHER_FL=BUILDING STORY 1_SCH=D 1,1431.00,190.9,7.497,0.133,3.800,2.501,0.000,0.000,0.000,0.000,6.301,No
 Zone Internal Gains Nominal, ALL_ST=CLASSROOM/LECTURE HALL/TRAINING ROOM OTHER_FL=BUILDING STORY 1_SCH=D 2,1431.00,190.9,7.497,0.133,3.800,2.501,0.000,0.000,0.000,0.000,6.301,No
 Zone Internal Gains Nominal, ALL_ST=CLASSROOM/LECTURE HALL/TRAINING ROOM OTHER_FL=BUILDING STORY 1_SCH=D 3,297.00,39.6,7.497,0.133,3.800,2.501,0.000,0.000,0.000,0.000,6.301,No
 Zone Internal Gains Nominal, ALL_ST=CLASSROOM/LECTURE HALL/TRAINING ROOM OTHER_FL=BUILDING STORY 2_SCH=D,297.00,39.6,7.497,0.133,3.800,2.501,0.000,0.000,0.000,0.000,6.301,No
 Zone Internal Gains Nominal, ALL_ST=CLASSROOM/LECTURE HALL/TRAINING ROOM OTHER_FL=BUILDING STORY 2_SCH=D 1,1431.00,190.9,7.497,0.133,3.800,2.501,0.000,0.000,0.000,0.000,6.301,No
 Zone Internal Gains Nominal, ALL_ST=CLASSROOM/LECTURE HALL/TRAINING ROOM OTHER_FL=BUILDING STORY 2_SCH=D 2,1431.00,190.9,7.497,0.133,3.800,2.501,0.000,0.000,0.000,0.000,6.301,No
 Zone Internal Gains Nominal, ALL_ST=CLASSROOM/LECTURE HALL/TRAINING ROOM OTHER_FL=BUILDING STORY 2_SCH=D 3,297.00,39.6,7.497,0.133,3.800,2.501,0.000,0.000,0.000,0.000,6.301,No
 Zone Internal Gains Nominal, ALL_ST=CONFERENCE/MEETING/MULTI-PURPOSE ROOM_FL=BUILDING STORY 1_SCH=C,624.00,124.8,4.998,0.200,5.250,0.500,0.000,0.000,0.000,0.000,5.750,No
 Zone Internal Gains Nominal, ALL_ST=FOOD PREPARATION AREA_FL=BUILDING STORY 1_SCH=B,216.00,10.8,19.993,5.002E-002,5.850,5.002,0.000,0.000,0.000,0.000,10.852,No
 Zone Internal Gains Nominal, ALL_ST=GYMNASIUM/FITNESS CENTRE PLAYING AREA_FL=BUILDING STORY 1_SCH=B,1976.00,395.3,4.998,0.200,4.600,0.750,0.000,0.000,0.000,0.000,5.350,No
 Zone Internal Gains Nominal, ALL_ST=GYMNASIUM/FITNESS CENTRE PLAYING AREA_FL=BUILDING STORY 1_SCH=B 1,1248.00,249.7,4.998,0.200,4.600,0.750,0.000,0.000,0.000,0.000,5.350,No
 Zone Internal Gains Nominal, ALL_ST=LIBRARY READING AREA_FL=BUILDING STORY 2_SCH=C,840.00,42.0,19.993,5.002E-002,5.150,0.500,0.000,0.000,0.000,0.000,5.650,No
 Zone Internal Gains Nominal, ALL_ST=LOBBY - OTHER_FL=BUILDING STORY 1_SCH=C,210.00,21.0,9.996,0.100,4.500,0.500,0.000,0.000,0.000,0.000,5.000,No
 Zone Internal Gains Nominal, ALL_ST=LOBBY - OTHER_FL=BUILDING STORY 2_SCH=C,210.00,21.0,9.996,0.100,4.500,0.500,0.000,0.000,0.000,0.000,5.000,No
 Zone Internal Gains Nominal, ALL_ST=OFFICE ENCLOSED <= 25 M2_FL=BUILDING STORY 1_SCH=A,532.00,26.6,19.993,5.002E-002,4.000,3.751,0.000,0.000,0.000,0.000,7.751,No
 Zone Internal Gains Nominal, ALL_ST=OFFICE ENCLOSED <= 25 M2_FL=BUILDING STORY 2_SCH=A,532.00,26.6,19.993,5.002E-002,4.000,3.751,0.000,0.000,0.000,0.000,7.751,No
 Zone Internal Gains Nominal, WET_ST=WASHROOM - OTHER-SCH-D_FL=BUILDING STORY 1_SCHD,210.00,7.0,29.989,3.335E-002,3.400,0.500,0.000,0.000,0.000,0.000,3.900,No
 Zone Internal Gains Nominal, WET_ST=WASHROOM - OTHER-SCH-D_FL=BUILDING STORY 2_SCHD,210.00,7.0,29.989,3.335E-002,3.400,0.500,0.000,0.000,0.000,0.000,3.900,No
 Zone Internal Gains Nominal, WILD_ST=CORRIDOR/TRANSITION AREA OTHER-SCH-D_FL=BUILDING STORY 1_SCH=D,1140.00,11.4,99.964,1.000E-002,2.200,0.000,0.000,0.000,0.000,0.000,2.200,No
 Zone Internal Gains Nominal, WILD_ST=CORRIDOR/TRANSITION AREA OTHER-SCH-D_FL=BUILDING STORY 1_SCH=D 1,960.00,9.6,99.964,1.000E-002,2.200,0.000,0.000,0.000,0.000,0.000,2.200,No
 Zone Internal Gains Nominal, WILD_ST=CORRIDOR/TRANSITION AREA OTHER-SCH-D_FL=BUILDING STORY 2_SCH=D,1140.00,11.4,99.964,1.000E-002,2.200,0.000,0.000,0.000,0.000,0.000,2.200,No
 Zone Internal Gains Nominal, WILD_ST=CORRIDOR/TRANSITION AREA OTHER-SCH-D_FL=BUILDING STORY 2_SCH=D 1,960.00,9.6,99.964,1.000E-002,2.200,0.000,0.000,0.000,0.000,0.000,2.200,No
 Zone Internal Gains Nominal, WILD_ST=ELECTRICAL/MECHANICAL ROOM-SCH-D_FL=BUILDING STORY 1_SCH=D,342.00,1.7,199.927,5.002E-003,2.300,0.500,0.000,0.000,0.000,0.000,2.800,No
 Zone Internal Gains Nominal, WILD_ST=ELECTRICAL/MECHANICAL ROOM-SCH-D_FL=BUILDING STORY 2_SCH=D,342.00,1.7,199.927,5.002E-003,2.300,0.500,0.000,0.000,0.000,0.000,2.800,No
! <People Internal Gains Nominal>,Name,Schedule Name,Zone Name,Zone Floor Area {m2},# Zone Occupants,Number of People {},People/Floor Area {person/m2},Floor Area per person {m2/person},Fraction Radiant,Fraction Convected,Sensible Fraction Calculation,Activity level,ASHRAE 55 Warnings,Carbon Dioxide Generation Rate,Nominal Minimum Number of People,Nominal Maximum Number of People
 People Internal Gains Nominal, ALL_ST=AUDIENCE SEATING AREA PERMANENT - AUDITORIUM_FL=BUILDING STORY 1_SCH=C SPACE FUNCTION AUDIENCE SEATING AREA PERMANENT - AUDITORIUM PEOPLE,NECB-C-OCCUPANCY,ALL_ST=AUDIENCE SEATING AREA PERMANENT - AUDITORIUM_FL=BUILDING STORY 1_SCH=C,988.00,197.7,197.7,0.200,4.998,0.300,0.700,AutoCalculate,NECB-ACTIVITY,No,3.8200E-008,0,178
 People Internal Gains Nominal, ALL_ST=CLASSROOM/LECTURE HALL/TRAINING ROOM OTHER_FL=BUILDING STORY 1_SCH=D SPACE FUNCTION CLASSROOM/LECTURE HALL/TRAINING ROOM OTHER PEOPLE,NECB-D-OCCUPANCY,ALL_ST=CLASSROOM/LECTURE HALL/TRAINING ROOM OTHER_FL=BUILDING STORY 1_SCH=D,297.00,39.6,39.6,0.133,7.497,0.300,0.700,AutoCalculate,NECB-ACTIVITY,No,3.8200E-008,0,36
 People Internal Gains Nominal, ALL_ST=CLASSROOM/LECTURE HALL/TRAINING ROOM OTHER_FL=BUILDING STORY 1_SCH=D 1 SPACE FUNCTION CLASSROOM/LECTURE HALL/TRAINING ROOM OTHER PEOPLE,NECB-D-OCCUPANCY,ALL_ST=CLASSROOM/LECTURE HALL/TRAINING ROOM OTHER_FL=BUILDING STORY 1_SCH=D 1,1431.00,190.9,190.9,0.133,7.497,0.300,0.700,AutoCalculate,NECB-ACTIVITY,No,3.8200E-008,0,172
 People Internal Gains Nominal, ALL_ST=CLASSROOM/LECTURE HALL/TRAINING ROOM OTHER_FL=BUILDING STORY 1_SCH=D 2 SPACE FUNCTION CLASSROOM/LECTURE HALL/TRAINING ROOM OTHER PEOPLE,NECB-D-OCCUPANCY,ALL_ST=CLASSROOM/LECTURE HALL/TRAINING ROOM OTHER_FL=BUILDING STORY 1_SCH=D 2,1431.00,190.9,190.9,0.133,7.497,0.300,0.700,AutoCalculate,NECB-ACTIVITY,No,3.8200E-008,0,172
 People Internal Gains Nominal, ALL_ST=CLASSROOM/LECTURE HALL/TRAINING ROOM OTHER_FL=BUILDING STORY 1_SCH=D 3 SPACE FUNCTION CLASSROOM/LECTURE HALL/TRAINING ROOM OTHER PEOPLE,NECB-D-OCCUPANCY,ALL_ST=CLASSROOM/LECTURE HALL/TRAINING ROOM OTHER_FL=BUILDING STORY 1_SCH=D 3,297.00,39.6,39.6,0.133,7.497,0.300,0.700,AutoCalculate,NECB-ACTIVITY,No,3.8200E-008,0,36
 People Internal Gains Nominal, ALL_ST=CLASSROOM/LECTURE HALL/TRAINING ROOM OTHER_FL=BUILDING STORY 2_SCH=D SPACE FUNCTION CLASSROOM/LECTURE HALL/TRAINING ROOM OTHER PEOPLE,NECB-D-OCCUPANCY,ALL_ST=CLASSROOM/LECTURE HALL/TRAINING ROOM OTHER_FL=BUILDING STORY 2_SCH=D,297.00,39.6,39.6,0.133,7.497,0.300,0.700,AutoCalculate,NECB-ACTIVITY,No,3.8200E-008,0,36
 People Internal Gains Nominal, ALL_ST=CLASSROOM/LECTURE HALL/TRAINING ROOM OTHER_FL=BUILDING STORY 2_SCH=D 1 SPACE FUNCTION CLASSROOM/LECTURE HALL/TRAINING ROOM OTHER PEOPLE,NECB-D-OCCUPANCY,ALL_ST=CLASSROOM/LECTURE HALL/TRAINING ROOM OTHER_FL=BUILDING STORY 2_SCH=D 1,1431.00,190.9,190.9,0.133,7.497,0.300,0.700,AutoCalculate,NECB-ACTIVITY,No,3.8200E-008,0,172
 People Internal Gains Nominal, ALL_ST=CLASSROOM/LECTURE HALL/TRAINING ROOM OTHER_FL=BUILDING STORY 2_SCH=D 2 SPACE FUNCTION CLASSROOM/LECTURE HALL/TRAINING ROOM OTHER PEOPLE,NECB-D-OCCUPANCY,ALL_ST=CLASSROOM/LECTURE HALL/TRAINING ROOM OTHER_FL=BUILDING STORY 2_SCH=D 2,1431.00,190.9,190.9,0.133,7.497,0.300,0.700,AutoCalculate,NECB-ACTIVITY,No,3.8200E-008,0,172
 People Internal Gains Nominal, ALL_ST=CLASSROOM/LECTURE HALL/TRAINING ROOM OTHER_FL=BUILDING STORY 2_SCH=D 3 SPACE FUNCTION CLASSROOM/LECTURE HALL/TRAINING ROOM OTHER PEOPLE,NECB-D-OCCUPANCY,ALL_ST=CLASSROOM/LECTURE HALL/TRAINING ROOM OTHER_FL=BUILDING STORY 2_SCH=D 3,297.00,39.6,39.6,0.133,7.497,0.300,0.700,AutoCalculate,NECB-ACTIVITY,No,3.8200E-008,0,36
 People Internal Gains Nominal, ALL_ST=CONFERENCE/MEETING/MULTI-PURPOSE ROOM_FL=BUILDING STORY 1_SCH=C SPACE FUNCTION CONFERENCE/MEETING/MULTI-PURPOSE ROOM PEOPLE,NECB-C-OCCUPANCY,ALL_ST=CONFERENCE/MEETING/MULTI-PURPOSE ROOM_FL=BUILDING STORY 1_SCH=C,624.00,124.8,124.8,0.200,4.998,0.300,0.700,AutoCalculate,NECB-ACTIVITY,No,3.8200E-008,0,112
 People Internal Gains Nominal, WILD_ST=CORRIDOR/TRANSITION AREA OTHER-SCH-D_FL=BUILDING STORY 1_SCH=D SPACE FUNCTION CORRIDOR/TRANSITION AREA OTHER-SCH-D PEOPLE,NECB-D-OCCUPANCY,WILD_ST=CORRIDOR/TRANSITION AREA OTHER-SCH-D_FL=BUILDING STORY 1_SCH=D,1140.00,11.4,11.4,1.000E-002,99.964,0.300,0.700,AutoCalculate,NECB-ACTIVITY,No,3.8200E-008,0,10
 People Internal Gains Nominal, WILD_ST=CORRIDOR/TRANSITION AREA OTHER-SCH-D_FL=BUILDING STORY 1_SCH=D 1 SPACE FUNCTION CORRIDOR/TRANSITION AREA OTHER-SCH-D PEOPLE,NECB-D-OCCUPANCY,WILD_ST=CORRIDOR/TRANSITION AREA OTHER-SCH-D_FL=BUILDING STORY 1_SCH=D 1,960.00,9.6,9.6,1.000E-002,99.964,0.300,0.700,AutoCalculate,NECB-ACTIVITY,No,3.8200E-008,0,9
 People Internal Gains Nominal, WILD_ST=CORRIDOR/TRANSITION AREA OTHER-SCH-D_FL=BUILDING STORY 2_SCH=D SPACE FUNCTION CORRIDOR/TRANSITION AREA OTHER-SCH-D PEOPLE,NECB-D-OCCUPANCY,WILD_ST=CORRIDOR/TRANSITION AREA OTHER-SCH-D_FL=BUILDING STORY 2_SCH=D,1140.00,11.4,11.4,1.000E-002,99.964,0.300,0.700,AutoCalculate,NECB-ACTIVITY,No,3.8200E-008,0,10
 People Internal Gains Nominal, WILD_ST=CORRIDOR/TRANSITION AREA OTHER-SCH-D_FL=BUILDING STORY 2_SCH=D 1 SPACE FUNCTION CORRIDOR/TRANSITION AREA OTHER-SCH-D PEOPLE,NECB-D-OCCUPANCY,WILD_ST=CORRIDOR/TRANSITION AREA OTHER-SCH-D_FL=BUILDING STORY 2_SCH=D 1,960.00,9.6,9.6,1.000E-002,99.964,0.300,0.700,AutoCalculate,NECB-ACTIVITY,No,3.8200E-008,0,9
 People Internal Gains Nominal, WILD_ST=ELECTRICAL/MECHANICAL ROOM-SCH-D_FL=BUILDING STORY 1_SCH=D SPACE FUNCTION ELECTRICAL/MECHANICAL ROOM-SCH-D PEOPLE,NECB-D-OCCUPANCY,WILD_ST=ELECTRICAL/MECHANICAL ROOM-SCH-D_FL=BUILDING STORY 1_SCH=D,342.00,1.7,1.7,5.002E-003,199.927,0.300,0.700,AutoCalculate,NECB-ACTIVITY,No,3.8200E-008,0,2
 People Internal Gains Nominal, WILD_ST=ELECTRICAL/MECHANICAL ROOM-SCH-D_FL=BUILDING STORY 2_SCH=D SPACE FUNCTION ELECTRICAL/MECHANICAL ROOM-SCH-D PEOPLE,NECB-D-OCCUPANCY,WILD_ST=ELECTRICAL/MECHANICAL ROOM-SCH-D_FL=BUILDING STORY 2_SCH=D,342.00,1.7,1.7,5.002E-003,199.927,0.300,0.700,AutoCalculate,NECB-ACTIVITY,No,3.8200E-008,0,2
 People Internal Gains Nominal, ALL_ST=FOOD PREPARATION AREA_FL=BUILDING STORY 1_SCH=B SPACE FUNCTION FOOD PREPARATION AREA PEOPLE,NECB-B-OCCUPANCY,ALL_ST=FOOD PREPARATION AREA_FL=BUILDING STORY 1_SCH=B,216.00,10.8,10.8,5.002E-002,19.993,0.300,0.700,AutoCalculate,NECB-ACTIVITY,No,3.8200E-008,0,10
 People Internal Gains Nominal, ALL_ST=GYMNASIUM/FITNESS CENTRE PLAYING AREA_FL=BUILDING STORY 1_SCH=B SPACE FUNCTION GYMNASIUM/FITNESS CENTRE PLAYING AREA PEOPLE,NECB-B-OCCUPANCY,ALL_ST=GYMNASIUM/FITNESS CENTRE PLAYING AREA_FL=BUILDING STORY 1_SCH=B,1976.00,395.3,395.3,0.200,4.998,0.300,0.700,AutoCalculate,NECB-ACTIVITY,No,3.8200E-008,0,356
 People Internal Gains Nominal, ALL_ST=GYMNASIUM/FITNESS CENTRE PLAYING AREA_FL=BUILDING STORY 1_SCH=B 1 SPACE FUNCTION GYMNASIUM/FITNESS CENTRE PLAYING AREA PEOPLE,NECB-B-OCCUPANCY,ALL_ST=GYMNASIUM/FITNESS CENTRE PLAYING AREA_FL=BUILDING STORY 1_SCH=B 1,1248.00,249.7,249.7,0.200,4.998,0.300,0.700,AutoCalculate,NECB-ACTIVITY,No,3.8200E-008,0,225
 People Internal Gains Nominal, ALL_ST=LIBRARY READING AREA_FL=BUILDING STORY 2_SCH=C SPACE FUNCTION LIBRARY READING AREA PEOPLE,NECB-C-OCCUPANCY,ALL_ST=LIBRARY READING AREA_FL=BUILDING STORY 2_SCH=C,840.00,42.0,42.0,5.002E-002,19.993,0.300,0.700,AutoCalculate,NECB-ACTIVITY,No,3.8200E-008,0,38
 People Internal Gains Nominal, ALL_ST=LOBBY - OTHER_FL=BUILDING STORY 1_SCH=C SPACE FUNCTION LOBBY - OTHER PEOPLE,NECB-C-OCCUPANCY,ALL_ST=LOBBY - OTHER_FL=BUILDING STORY 1_SCH=C,210.00,21.0,21.0,0.100,9.996,0.300,0.700,AutoCalculate,NECB-ACTIVITY,No,3.8200E-008,0,19
 People Internal Gains Nominal, ALL_ST=LOBBY - OTHER_FL=BUILDING STORY 2_SCH=C SPACE FUNCTION LOBBY - OTHER PEOPLE,NECB-C-OCCUPANCY,ALL_ST=LOBBY - OTHER_FL=BUILDING STORY 2_SCH=C,210.00,21.0,21.0,0.100,9.996,0.300,0.700,AutoCalculate,NECB-ACTIVITY,No,3.8200E-008,0,19
 People Internal Gains Nominal, ALL_ST=OFFICE ENCLOSED <= 25 M2_FL=BUILDING STORY 1_SCH=A SPACE FUNCTION OFFICE ENCLOSED <= 25 M2 PEOPLE,NECB-A-OCCUPANCY,ALL_ST=OFFICE ENCLOSED <= 25 M2_FL=BUILDING STORY 1_SCH=A,532.00,26.6,26.6,5.002E-002,19.993,0.300,0.700,AutoCalculate,NECB-ACTIVITY,No,3.8200E-008,0,24
 People Internal Gains Nominal, ALL_ST=OFFICE ENCLOSED <= 25 M2_FL=BUILDING STORY 2_SCH=A SPACE FUNCTION OFFICE ENCLOSED <= 25 M2 PEOPLE,NECB-A-OCCUPANCY,ALL_ST=OFFICE ENCLOSED <= 25 M2_FL=BUILDING STORY 2_SCH=A,532.00,26.6,26.6,5.002E-002,19.993,0.300,0.700,AutoCalculate,NECB-ACTIVITY,No,3.8200E-008,0,24
 People Internal Gains Nominal, WET_ST=WASHROOM - OTHER-SCH-D_FL=BUILDING STORY 1_SCHD SPACE FUNCTION WASHROOM - OTHER-SCH-D PEOPLE,NECB-D-OCCUPANCY,WET_ST=WASHROOM - OTHER-SCH-D_FL=BUILDING STORY 1_SCHD,210.00,7.0,7.0,3.335E-002,29.989,0.300,0.700,AutoCalculate,NECB-ACTIVITY,No,3.8200E-008,0,6
 People Internal Gains Nominal, WET_ST=WASHROOM - OTHER-SCH-D_FL=BUILDING STORY 2_SCHD SPACE FUNCTION WASHROOM - OTHER-SCH-D PEOPLE,NECB-D-OCCUPANCY,WET_ST=WASHROOM - OTHER-SCH-D_FL=BUILDING STORY 2_SCHD,210.00,7.0,7.0,3.335E-002,29.989,0.300,0.700,AutoCalculate,NECB-ACTIVITY,No,3.8200E-008,0,6
! <Lights Internal Gains Nominal>,Name,Schedule Name,Zone Name,Zone Floor Area {m2},# Zone Occupants,Lighting Level {W},Lights/Floor Area {W/m2},Lights per person {W/person},Fraction Return Air,Fraction Radiant,Fraction Short Wave,Fraction Convected,Fraction Replaceable,End-Use Category,Nominal Minimum Lighting Level {W},Nominal Maximum Lighting Level {W}
 Lights Internal Gains Nominal, ALL_ST=AUDIENCE SEATING AREA PERMANENT - AUDITORIUM_FL=BUILDING STORY 1_SCH=C SPACE FUNCTION AUDIENCE SEATING AREA PERMANENT - AUDITORIUM LIGHTS 85.0 PERCENT REDUCTION,NECB-C-LIGHTING,ALL_ST=AUDIENCE SEATING AREA PERMANENT - AUDITORIUM_FL=BUILDING STORY 1_SCH=C,988.00,197.7,3211.000,3.250,16.244,0.000,0.500,0.200,0.300,1.000,General,160.550,2889.900
 Lights Internal Gains Nominal, ALL_ST=CLASSROOM/LECTURE HALL/TRAINING ROOM OTHER_FL=BUILDING STORY 1_SCH=D SPACE FUNCTION CLASSROOM/LECTURE HALL/TRAINING ROOM OTHER LIGHTS 85.0 PERCENT REDUCTION,NECB-D-OCCUPANCY-NECB-D-LIGHTING-0.5-0.0-0.67-LIGHT RULESET,ALL_ST=CLASSROOM/LECTURE HALL/TRAINING ROOM OTHER_FL=BUILDING STORY 1_SCH=D,297.00,39.6,1128.600,3.800,28.490,0.000,0.500,0.200,0.300,1.000,General,37.526,1015.740
 Lights Internal Gains Nominal, ALL_ST=CLASSROOM/LECTURE HALL/TRAINING ROOM OTHER_FL=BUILDING STORY 1_SCH=D 1 SPACE FUNCTION CLASSROOM/LECTURE HALL/TRAINING ROOM OTHER LIGHTS 85.0 PERCENT REDUCTION,NECB-D-OCCUPANCY-NECB-D-LIGHTING-0.5-0.0-0.67-LIGHT RULESET,ALL_ST=CLASSROOM/LECTURE HALL/TRAINING ROOM OTHER_FL=BUILDING STORY 1_SCH=D 1,1431.00,190.9,5437.800,3.800,28.490,0.000,0.500,0.200,0.300,1.000,General,180.807,4894.020
 Lights Internal Gains Nominal, ALL_ST=CLASSROOM/LECTURE HALL/TRAINING ROOM OTHER_FL=BUILDING STORY 1_SCH=D 2 SPACE FUNCTION CLASSROOM/LECTURE HALL/TRAINING ROOM OTHER LIGHTS 85.0 PERCENT REDUCTION,NECB-D-OCCUPANCY-NECB-D-LIGHTING-0.5-0.0-0.67-LIGHT RULESET,ALL_ST=CLASSROOM/LECTURE HALL/TRAINING ROOM OTHER_FL=BUILDING STORY 1_SCH=D 2,1431.00,190.9,5437.800,3.800,28.490,0.000,0.500,0.200,0.300,1.000,General,180.807,4894.020
 Lights Internal Gains Nominal, ALL_ST=CLASSROOM/LECTURE HALL/TRAINING ROOM OTHER_FL=BUILDING STORY 1_SCH=D 3 SPACE FUNCTION CLASSROOM/LECTURE HALL/TRAINING ROOM OTHER LIGHTS 85.0 PERCENT REDUCTION,NECB-D-OCCUPANCY-NECB-D-LIGHTING-0.5-0.0-0.67-LIGHT RULESET,ALL_ST=CLASSROOM/LECTURE HALL/TRAINING ROOM OTHER_FL=BUILDING STORY 1_SCH=D 3,297.00,39.6,1128.600,3.800,28.490,0.000,0.500,0.200,0.300,1.000,General,37.526,1015.740
 Lights Internal Gains Nominal, ALL_ST=CLASSROOM/LECTURE HALL/TRAINING ROOM OTHER_FL=BUILDING STORY 2_SCH=D SPACE FUNCTION CLASSROOM/LECTURE HALL/TRAINING ROOM OTHER LIGHTS 85.0 PERCENT REDUCTION,NECB-D-OCCUPANCY-NECB-D-LIGHTING-0.5-0.0-0.67-LIGHT RULESET,ALL_ST=CLASSROOM/LECTURE HALL/TRAINING ROOM OTHER_FL=BUILDING STORY 2_SCH=D,297.00,39.6,1128.600,3.800,28.490,0.000,0.500,0.200,0.300,1.000,General,37.526,1015.740
 Lights Internal Gains Nominal, ALL_ST=CLASSROOM/LECTURE HALL/TRAINING ROOM OTHER_FL=BUILDING STORY 2_SCH=D 1 SPACE FUNCTION CLASSROOM/LECTURE HALL/TRAINING ROOM OTHER LIGHTS 85.0 PERCENT REDUCTION,NECB-D-OCCUPANCY-NECB-D-LIGHTING-0.5-0.0-0.67-LIGHT RULESET,ALL_ST=CLASSROOM/LECTURE HALL/TRAINING ROOM OTHER_FL=BUILDING STORY 2_SCH=D 1,1431.00,190.9,5437.800,3.800,28.490,0.000,0.500,0.200,0.300,1.000,General,180.807,4894.020
 Lights Internal Gains Nominal, ALL_ST=CLASSROOM/LECTURE HALL/TRAINING ROOM OTHER_FL=BUILDING STORY 2_SCH=D 2 SPACE FUNCTION CLASSROOM/LECTURE HALL/TRAINING ROOM OTHER LIGHTS 85.0 PERCENT REDUCTION,NECB-D-OCCUPANCY-NECB-D-LIGHTING-0.5-0.0-0.67-LIGHT RULESET,ALL_ST=CLASSROOM/LECTURE HALL/TRAINING ROOM OTHER_FL=BUILDING STORY 2_SCH=D 2,1431.00,190.9,5437.800,3.800,28.490,0.000,0.500,0.200,0.300,1.000,General,180.807,4894.020
 Lights Internal Gains Nominal, ALL_ST=CLASSROOM/LECTURE HALL/TRAINING ROOM OTHER_FL=BUILDING STORY 2_SCH=D 3 SPACE FUNCTION CLASSROOM/LECTURE HALL/TRAINING ROOM OTHER LIGHTS 85.0 PERCENT REDUCTION,NECB-D-OCCUPANCY-NECB-D-LIGHTING-0.5-0.0-0.67-LIGHT RULESET,ALL_ST=CLASSROOM/LECTURE HALL/TRAINING ROOM OTHER_FL=BUILDING STORY 2_SCH=D 3,297.00,39.6,1128.600,3.800,28.490,0.000,0.500,0.200,0.300,1.000,General,37.526,1015.740
 Lights Internal Gains Nominal, ALL_ST=CONFERENCE/MEETING/MULTI-PURPOSE ROOM_FL=BUILDING STORY 1_SCH=C SPACE FUNCTION CONFERENCE/MEETING/MULTI-PURPOSE ROOM LIGHTS 85.0 PERCENT REDUCTION,NECB-C-OCCUPANCY-NECB-C-LIGHTING-0.5-0.0-0.67-LIGHT RULESET,ALL_ST=CONFERENCE/MEETING/MULTI-PURPOSE ROOM_FL=BUILDING STORY 1_SCH=C,624.00,124.8,3276.000,5.250,26.240,0.000,0.500,0.200,0.300,1.000,General,108.927,2948.400
 Lights Internal Gains Nominal, WILD_ST=CORRIDOR/TRANSITION AREA OTHER-SCH-D_FL=BUILDING STORY 1_SCH=D SPACE FUNCTION CORRIDOR/TRANSITION AREA OTHER-SCH-D LIGHTS 85.0 PERCENT REDUCTION,NECB-D-LIGHTING,WILD_ST=CORRIDOR/TRANSITION AREA OTHER-SCH-D_FL=BUILDING STORY 1_SCH=D,1140.00,11.4,2508.000,2.200,219.920,0.000,0.500,0.200,0.300,1.000,General,125.400,2257.200
 Lights Internal Gains Nominal, WILD_ST=CORRIDOR/TRANSITION AREA OTHER-SCH-D_FL=BUILDING STORY 1_SCH=D 1 SPACE FUNCTION CORRIDOR/TRANSITION AREA OTHER-SCH-D LIGHTS 85.0 PERCENT REDUCTION,NECB-D-LIGHTING,WILD_ST=CORRIDOR/TRANSITION AREA OTHER-SCH-D_FL=BUILDING STORY 1_SCH=D 1,960.00,9.6,2112.000,2.200,219.920,0.000,0.500,0.200,0.300,1.000,General,105.600,1900.800
 Lights Internal Gains Nominal, WILD_ST=CORRIDOR/TRANSITION AREA OTHER-SCH-D_FL=BUILDING STORY 2_SCH=D SPACE FUNCTION CORRIDOR/TRANSITION AREA OTHER-SCH-D LIGHTS 85.0 PERCENT REDUCTION,NECB-D-LIGHTING,WILD_ST=CORRIDOR/TRANSITION AREA OTHER-SCH-D_FL=BUILDING STORY 2_SCH=D,1140.00,11.4,2508.000,2.200,219.920,0.000,0.500,0.200,0.300,1.000,General,125.400,2257.200
 Lights Internal Gains Nominal, WILD_ST=CORRIDOR/TRANSITION AREA OTHER-SCH-D_FL=BUILDING STORY 2_SCH=D 1 SPACE FUNCTION CORRIDOR/TRANSITION AREA OTHER-SCH-D LIGHTS 85.0 PERCENT REDUCTION,NECB-D-LIGHTING,WILD_ST=CORRIDOR/TRANSITION AREA OTHER-SCH-D_FL=BUILDING STORY 2_SCH=D 1,960.00,9.6,2112.000,2.200,219.920,0.000,0.500,0.200,0.300,1.000,General,105.600,1900.800
 Lights Internal Gains Nominal, WILD_ST=ELECTRICAL/MECHANICAL ROOM-SCH-D_FL=BUILDING STORY 1_SCH=D SPACE FUNCTION ELECTRICAL/MECHANICAL ROOM-SCH-D LIGHTS 85.0 PERCENT REDUCTION,NECB-D-LIGHTING,WILD_ST=ELECTRICAL/MECHANICAL ROOM-SCH-D_FL=BUILDING STORY 1_SCH=D,342.00,1.7,786.600,2.300,459.833,0.000,0.500,0.200,0.300,1.000,General,39.330,707.940
 Lights Internal Gains Nominal, WILD_ST=ELECTRICAL/MECHANICAL ROOM-SCH-D_FL=BUILDING STORY 2_SCH=D SPACE FUNCTION ELECTRICAL/MECHANICAL ROOM-SCH-D LIGHTS 85.0 PERCENT REDUCTION,NECB-D-LIGHTING,WILD_ST=ELECTRICAL/MECHANICAL ROOM-SCH-D_FL=BUILDING STORY 2_SCH=D,342.00,1.7,786.600,2.300,459.833,0.000,0.500,0.200,0.300,1.000,General,39.330,707.940
 Lights Internal Gains Nominal, ALL_ST=FOOD PREPARATION AREA_FL=BUILDING STORY 1_SCH=B SPACE FUNCTION FOOD PREPARATION AREA LIGHTS 85.0 PERCENT REDUCTION,NECB-B-OCCUPANCY-NECB-B-LIGHTING-0.0-0.0-0.67-LIGHT RULESET,ALL_ST=FOOD PREPARATION AREA_FL=BUILDING STORY 1_SCH=B,216.00,10.8,1263.600,5.850,116.957,0.000,0.500,0.200,0.300,1.000,General,126.360,1137.240
 Lights Internal Gains Nominal, ALL_ST=GYMNASIUM/FITNESS CENTRE PLAYING AREA_FL=BUILDING STORY 1_SCH=B SPACE FUNCTION GYMNASIUM/FITNESS CENTRE PLAYING AREA LIGHTS 85.0 PERCENT REDUCTION,NECB-B-OCCUPANCY-NECB-B-LIGHTING-0.0-0.0-0.67-LIGHT RULESET,ALL_ST=GYMNASIUM/FITNESS CENTRE PLAYING AREA_FL=BUILDING STORY 1_SCH=B,1976.00,395.3,9089.600,4.600,22.992,0.000,0.500,0.200,0.300,1.000,General,908.960,8180.640
 Lights Internal Gains Nominal, ALL_ST=GYMNASIUM/FITNESS CENTRE PLAYING AREA_FL=BUILDING STORY 1_SCH=B 1 SPACE FUNCTION GYMNASIUM/FITNESS CENTRE PLAYING AREA LIGHTS 85.0 PERCENT REDUCTION,NECB-B-OCCUPANCY-NECB-B-LIGHTING-0.0-0.0-0.67-LIGHT RULESET,ALL_ST=GYMNASIUM/FITNESS CENTRE PLAYING AREA_FL=BUILDING STORY 1_SCH=B 1,1248.00,249.7,5740.800,4.600,22.992,0.000,0.500,0.200,0.300,1.000,General,574.080,5166.720
 Lights Internal Gains Nominal, ALL_ST=LIBRARY READING AREA_FL=BUILDING STORY 2_SCH=C SPACE FUNCTION LIBRARY READING AREA LIGHTS 85.0 PERCENT REDUCTION,NECB-C-OCCUPANCY-NECB-C-LIGHTING-0.0-0.0-0.67-LIGHT RULESET,ALL_ST=LIBRARY READING AREA_FL=BUILDING STORY 2_SCH=C,840.00,42.0,4326.000,5.150,102.963,0.000,0.500,0.200,0.300,1.000,General,216.300,3893.400
 Lights Internal Gains Nominal, ALL_ST=LOBBY - OTHER_FL=BUILDING STORY 1_SCH=C SPACE FUNCTION LOBBY - OTHER LIGHTS 85.0 PERCENT REDUCTION,NECB-C-OCCUPANCY-NECB-C-LIGHTING-0.0-0.0-0.67-LIGHT RULESET,ALL_ST=LOBBY - OTHER_FL=BUILDING STORY 1_SCH=C,210.00,21.0,945.000,4.500,44.984,0.000,0.500,0.200,0.300,1.000,General,47.250,850.500
 Lights Internal Gains Nominal, ALL_ST=LOBBY - OTHER_FL=BUILDING STORY 2_SCH=C SPACE FUNCTION LOBBY - OTHER LIGHTS 85.0 PERCENT REDUCTION,NECB-C-OCCUPANCY-NECB-C-LIGHTING-0.0-0.0-0.67-LIGHT RULESET,ALL_ST=LOBBY - OTHER_FL=BUILDING STORY 2_SCH=C,210.00,21.0,945.000,4.500,44.984,0.000,0.500,0.200,0.300,1.000,General,47.250,850.500
 Lights Internal Gains Nominal, ALL_ST=OFFICE ENCLOSED <= 25 M2_FL=BUILDING STORY 1_SCH=A SPACE FUNCTION OFFICE ENCLOSED <= 25 M2 LIGHTS 85.0 PERCENT REDUCTION,NECB-A-OCCUPANCY-NECB-A-LIGHTING-0.3-0.1-0.67-LIGHT RULESET,ALL_ST=OFFICE ENCLOSED <= 25 M2_FL=BUILDING STORY 1_SCH=A,532.00,26.6,2128.000,4.000,79.971,0.000,0.500,0.200,0.300,1.000,General,74.374,1915.200
 Lights Internal Gains Nominal, ALL_ST=OFFICE ENCLOSED <= 25 M2_FL=BUILDING STORY 2_SCH=A SPACE FUNCTION OFFICE ENCLOSED <= 25 M2 LIGHTS 85.0 PERCENT REDUCTION,NECB-A-OCCUPANCY-NECB-A-LIGHTING-0.3-0.1-0.67-LIGHT RULESET,ALL_ST=OFFICE ENCLOSED <= 25 M2_FL=BUILDING STORY 2_SCH=A,532.00,26.6,2128.000,4.000,79.971,0.000,0.500,0.200,0.300,1.000,General,74.374,1915.200
 Lights Internal Gains Nominal, WET_ST=WASHROOM - OTHER-SCH-D_FL=BUILDING STORY 1_SCHD SPACE FUNCTION WASHROOM - OTHER-SCH-D LIGHTS 85.0 PERCENT REDUCTION,NECB-D-OCCUPANCY-NECB-D-LIGHTING-0.5-0.0-0.67-LIGHT RULESET,WET_ST=WASHROOM - OTHER-SCH-D_FL=BUILDING STORY 1_SCHD,210.00,7.0,714.000,3.400,101.963,0.000,0.500,0.200,0.300,1.000,General,23.741,642.600
 Lights Internal Gains Nominal, WET_ST=WASHROOM - OTHER-SCH-D_FL=BUILDING STORY 2_SCHD SPACE FUNCTION WASHROOM - OTHER-SCH-D LIGHTS 85.0 PERCENT REDUCTION,NECB-D-OCCUPANCY-NECB-D-LIGHTING-0.5-0.0-0.67-LIGHT RULESET,WET_ST=WASHROOM - OTHER-SCH-D_FL=BUILDING STORY 2_SCHD,210.00,7.0,714.000,3.400,101.963,0.000,0.500,0.200,0.300,1.000,General,23.741,642.600
! <ElectricEquipment Internal Gains Nominal>,Name,Schedule Name,Zone Name,Zone Floor Area {m2},# Zone Occupants,Equipment Level {W},Equipment/Floor Area {W/m2},Equipment per person {W/person},Fraction Latent,Fraction Radiant,Fraction Lost,Fraction Convected,End-Use SubCategory,Nominal Minimum Equipment Level {W},Nominal Maximum Equipment Level {W}
 ElectricEquipment Internal Gains Nominal, ALL_ST=AUDIENCE SEATING AREA PERMANENT - AUDITORIUM_FL=BUILDING STORY 1_SCH=C SPACE FUNCTION AUDIENCE SEATING AREA PERMANENT - AUDITORIUM ELEC EQUIP 50.0 PERCENT REDUCTION,NECB-C-ELECTRIC-EQUIPMENT,ALL_ST=AUDIENCE SEATING AREA PERMANENT - AUDITORIUM_FL=BUILDING STORY 1_SCH=C,988.00,197.7,1235.449,1.250,6.250,0.000,0.500,0.000,0.500,General,61.772,1111.904
 ElectricEquipment Internal Gains Nominal, ALL_ST=CLASSROOM/LECTURE HALL/TRAINING ROOM OTHER_FL=BUILDING STORY 1_SCH=D SPACE FUNCTION CLASSROOM/LECTURE HALL/TRAINING ROOM OTHER ELEC EQUIP 50.0 PERCENT REDUCTION,NECB-D-ELECTRIC-EQUIPMENT,ALL_ST=CLASSROOM/LECTURE HALL/TRAINING ROOM OTHER_FL=BUILDING STORY 1_SCH=D,297.00,39.6,742.770,2.501,18.750,0.000,0.500,0.000,0.500,General,37.138,668.493
 ElectricEquipment Internal Gains Nominal, ALL_ST=CLASSROOM/LECTURE HALL/TRAINING ROOM OTHER_FL=BUILDING STORY 1_SCH=D 1 SPACE FUNCTION CLASSROOM/LECTURE HALL/TRAINING ROOM OTHER ELEC EQUIP 50.0 PERCENT REDUCTION,NECB-D-ELECTRIC-EQUIPMENT,ALL_ST=CLASSROOM/LECTURE HALL/TRAINING ROOM OTHER_FL=BUILDING STORY 1_SCH=D 1,1431.00,190.9,3578.800,2.501,18.750,0.000,0.500,0.000,0.500,General,178.940,3220.920
 ElectricEquipment Internal Gains Nominal, ALL_ST=CLASSROOM/LECTURE HALL/TRAINING ROOM OTHER_FL=BUILDING STORY 1_SCH=D 2 SPACE FUNCTION CLASSROOM/LECTURE HALL/TRAINING ROOM OTHER ELEC EQUIP 50.0 PERCENT REDUCTION,NECB-D-ELECTRIC-EQUIPMENT,ALL_ST=CLASSROOM/LECTURE HALL/TRAINING ROOM OTHER_FL=BUILDING STORY 1_SCH=D 2,1431.00,190.9,3578.800,2.501,18.750,0.000,0.500,0.000,0.500,General,178.940,3220.920
 ElectricEquipment Internal Gains Nominal, ALL_ST=CLASSROOM/LECTURE HALL/TRAINING ROOM OTHER_FL=BUILDING STORY 1_SCH=D 3 SPACE FUNCTION CLASSROOM/LECTURE HALL/TRAINING ROOM OTHER ELEC EQUIP 50.0 PERCENT REDUCTION,NECB-D-ELECTRIC-EQUIPMENT,ALL_ST=CLASSROOM/LECTURE HALL/TRAINING ROOM OTHER_FL=BUILDING STORY 1_SCH=D 3,297.00,39.6,742.770,2.501,18.750,0.000,0.500,0.000,0.500,General,37.138,668.493
 ElectricEquipment Internal Gains Nominal, ALL_ST=CLASSROOM/LECTURE HALL/TRAINING ROOM OTHER_FL=BUILDING STORY 2_SCH=D SPACE FUNCTION CLASSROOM/LECTURE HALL/TRAINING ROOM OTHER ELEC EQUIP 50.0 PERCENT REDUCTION,NECB-D-ELECTRIC-EQUIPMENT,ALL_ST=CLASSROOM/LECTURE HALL/TRAINING ROOM OTHER_FL=BUILDING STORY 2_SCH=D,297.00,39.6,742.770,2.501,18.750,0.000,0.500,0.000,0.500,General,37.138,668.493
 ElectricEquipment Internal Gains Nominal, ALL_ST=CLASSROOM/LECTURE HALL/TRAINING ROOM OTHER_FL=BUILDING STORY 2_SCH=D 1 SPACE FUNCTION CLASSROOM/LECTURE HALL/TRAINING ROOM OTHER ELEC EQUIP 50.0 PERCENT REDUCTION,NECB-D-ELECTRIC-EQUIPMENT,ALL_ST=CLASSROOM/LECTURE HALL/TRAINING ROOM OTHER_FL=BUILDING STORY 2_SCH=D 1,1431.00,190.9,3578.800,2.501,18.750,0.000,0.500,0.000,0.500,General,178.940,3220.920
 ElectricEquipment Internal Gains Nominal, ALL_ST=CLASSROOM/LECTURE HALL/TRAINING ROOM OTHER_FL=BUILDING STORY 2_SCH=D 2 SPACE FUNCTION CLASSROOM/LECTURE HALL/TRAINING ROOM OTHER ELEC EQUIP 50.0 PERCENT REDUCTION,NECB-D-ELECTRIC-EQUIPMENT,ALL_ST=CLASSROOM/LECTURE HALL/TRAINING ROOM OTHER_FL=BUILDING STORY 2_SCH=D 2,1431.00,190.9,3578.800,2.501,18.750,0.000,0.500,0.000,0.500,General,178.940,3220.920
 ElectricEquipment Internal Gains Nominal, ALL_ST=CLASSROOM/LECTURE HALL/TRAINING ROOM OTHER_FL=BUILDING STORY 2_SCH=D 3 SPACE FUNCTION CLASSROOM/LECTURE HALL/TRAINING ROOM OTHER ELEC EQUIP 50.0 PERCENT REDUCTION,NECB-D-ELECTRIC-EQUIPMENT,ALL_ST=CLASSROOM/LECTURE HALL/TRAINING ROOM OTHER_FL=BUILDING STORY 2_SCH=D 3,297.00,39.6,742.770,2.501,18.750,0.000,0.500,0.000,0.500,General,37.138,668.493
 ElectricEquipment Internal Gains Nominal, ALL_ST=CONFERENCE/MEETING/MULTI-PURPOSE ROOM_FL=BUILDING STORY 1_SCH=C SPACE FUNCTION CONFERENCE/MEETING/MULTI-PURPOSE ROOM ELEC EQUIP 50.0 PERCENT REDUCTION,NECB-C-ELECTRIC-EQUIPMENT,ALL_ST=CONFERENCE/MEETING/MULTI-PURPOSE ROOM_FL=BUILDING STORY 1_SCH=C,624.00,124.8,312.113,0.500,2.500,0.000,0.500,0.000,0.500,General,15.606,280.902
 ElectricEquipment Internal Gains Nominal, WILD_ST=ELECTRICAL/MECHANICAL ROOM-SCH-D_FL=BUILDING STORY 1_SCH=D SPACE FUNCTION ELECTRICAL/MECHANICAL ROOM-SCH-D ELEC EQUIP 50.0 PERCENT REDUCTION,NECB-D-ELECTRIC-EQUIPMENT,WILD_ST=ELECTRICAL/MECHANICAL ROOM-SCH-D_FL=BUILDING STORY 1_SCH=D,342.00,1.7,171.062,0.500,100.000,0.000,0.500,0.000,0.500,General,8.553,153.956
 ElectricEquipment Internal Gains Nominal, WILD_ST=ELECTRICAL/MECHANICAL ROOM-SCH-D_FL=BUILDING STORY 2_SCH=D SPACE FUNCTION ELECTRICAL/MECHANICAL ROOM-SCH-D ELEC EQUIP 50.0 PERCENT REDUCTION,NECB-D-ELECTRIC-EQUIPMENT,WILD_ST=ELECTRICAL/MECHANICAL ROOM-SCH-D_FL=BUILDING STORY 2_SCH=D,342.00,1.7,171.062,0.500,100.000,0.000,0.500,0.000,0.500,General,8.553,153.956
 ElectricEquipment Internal Gains Nominal, ALL_ST=FOOD PREPARATION AREA_FL=BUILDING STORY 1_SCH=B SPACE FUNCTION FOOD PREPARATION AREA ELEC EQUIP 50.0 PERCENT REDUCTION,NECB-B-ELECTRIC-EQUIPMENT,ALL_ST=FOOD PREPARATION AREA_FL=BUILDING STORY 1_SCH=B,216.00,10.8,1080.392,5.002,100.000,0.000,0.500,0.000,0.500,General,108.039,972.353
 ElectricEquipment Internal Gains Nominal, ALL_ST=GYMNASIUM/FITNESS CENTRE PLAYING AREA_FL=BUILDING STORY 1_SCH=B SPACE FUNCTION GYMNASIUM/FITNESS CENTRE PLAYING AREA ELEC EQUIP 50.0 PERCENT REDUCTION,NECB-B-ELECTRIC-EQUIPMENT,ALL_ST=GYMNASIUM/FITNESS CENTRE PLAYING AREA_FL=BUILDING STORY 1_SCH=B,1976.00,395.3,1482.539,0.750,3.750,0.000,0.500,0.000,0.500,General,148.254,1334.285
 ElectricEquipment Internal Gains Nominal, ALL_ST=GYMNASIUM/FITNESS CENTRE PLAYING AREA_FL=BUILDING STORY 1_SCH=B 1 SPACE FUNCTION GYMNASIUM/FITNESS CENTRE PLAYING AREA ELEC EQUIP 50.0 PERCENT REDUCTION,NECB-B-ELECTRIC-EQUIPMENT,ALL_ST=GYMNASIUM/FITNESS CENTRE PLAYING AREA_FL=BUILDING STORY 1_SCH=B 1,1248.00,249.7,936.340,0.750,3.750,0.000,0.500,0.000,0.500,General,93.634,842.706
 ElectricEquipment Internal Gains Nominal, ALL_ST=LIBRARY READING AREA_FL=BUILDING STORY 2_SCH=C SPACE FUNCTION LIBRARY READING AREA ELEC EQUIP 50.0 PERCENT REDUCTION,NECB-C-ELECTRIC-EQUIPMENT,ALL_ST=LIBRARY READING AREA_FL=BUILDING STORY 2_SCH=C,840.00,42.0,420.153,0.500,10.000,0.000,0.500,0.000,0.500,General,21.008,378.137
 ElectricEquipment Internal Gains Nominal, ALL_ST=LOBBY - OTHER_FL=BUILDING STORY 1_SCH=C SPACE FUNCTION LOBBY - OTHER ELEC EQUIP 50.0 PERCENT REDUCTION,NECB-C-ELECTRIC-EQUIPMENT,ALL_ST=LOBBY - OTHER_FL=BUILDING STORY 1_SCH=C,210.00,21.0,105.038,0.500,5.000,0.000,0.500,0.000,0.500,General,5.252,94.534
 ElectricEquipment Internal Gains Nominal, ALL_ST=LOBBY - OTHER_FL=BUILDING STORY 2_SCH=C SPACE FUNCTION LOBBY - OTHER ELEC EQUIP 50.0 PERCENT REDUCTION,NECB-C-ELECTRIC-EQUIPMENT,ALL_ST=LOBBY - OTHER_FL=BUILDING STORY 2_SCH=C,210.00,21.0,105.038,0.500,5.000,0.000,0.500,0.000,0.500,General,5.252,94.534
 ElectricEquipment Internal Gains Nominal, ALL_ST=OFFICE ENCLOSED <= 25 M2_FL=BUILDING STORY 1_SCH=A SPACE FUNCTION OFFICE ENCLOSED <= 25 M2 ELEC EQUIP 50.0 PERCENT REDUCTION,NECB-A-ELECTRIC-EQUIPMENT,ALL_ST=OFFICE ENCLOSED <= 25 M2_FL=BUILDING STORY 1_SCH=A,532.00,26.6,1995.725,3.751,75.000,0.000,0.500,0.000,0.500,General,399.145,1796.153
 ElectricEquipment Internal Gains Nominal, ALL_ST=OFFICE ENCLOSED <= 25 M2_FL=BUILDING STORY 2_SCH=A SPACE FUNCTION OFFICE ENCLOSED <= 25 M2 ELEC EQUIP 50.0 PERCENT REDUCTION,NECB-A-ELECTRIC-EQUIPMENT,ALL_ST=OFFICE ENCLOSED <= 25 M2_FL=BUILDING STORY 2_SCH=A,532.00,26.6,1995.725,3.751,75.000,0.000,0.500,0.000,0.500,General,399.145,1796.153
 ElectricEquipment Internal Gains Nominal, WET_ST=WASHROOM - OTHER-SCH-D_FL=BUILDING STORY 1_SCHD SPACE FUNCTION WASHROOM - OTHER-SCH-D ELEC EQUIP 50.0 PERCENT REDUCTION,NECB-D-ELECTRIC-EQUIPMENT,WET_ST=WASHROOM - OTHER-SCH-D_FL=BUILDING STORY 1_SCHD,210.00,7.0,105.038,0.500,15.000,0.000,0.500,0.000,0.500,General,5.252,94.534
 ElectricEquipment Internal Gains Nominal, WET_ST=WASHROOM - OTHER-SCH-D_FL=BUILDING STORY 2_SCHD SPACE FUNCTION WASHROOM - OTHER-SCH-D ELEC EQUIP 50.0 PERCENT REDUCTION,NECB-D-ELECTRIC-EQUIPMENT,WET_ST=WASHROOM - OTHER-SCH-D_FL=BUILDING STORY 2_SCHD,210.00,7.0,105.038,0.500,15.000,0.000,0.500,0.000,0.500,General,5.252,94.534
! <Shadowing/Sun Position Calculations Annual Simulations>, Calculation Method, Value {days}, Allowable Number Figures in Shadow Overlap {}, Polygon Clipping Algorithm, Sky Diffuse Modeling Algorithm, External Shading Calculation Method, Output External Shading Calculation Results, Disable Self-Shading Within Shading Zone Groups, Disable Self-Shading From Shading Zone Groups to Other Zones
Shadowing/Sun Position Calculations Annual Simulations,AverageOverDaysInFrequency,30,15000,SutherlandHodgman,SimpleSkyDiffuseModeling,InternalCalculation,No,No,No
! <Water Heater Information>,Type,Name,Volume {m3},Maximum Capacity {W},Standard Rated Recovery Efficiency, Standard Rated Energy Factor
! <Heat Pump Water Heater Information>,Type,Name,Volume {m3},Maximum Capacity {W},Standard Rated Recovery Efficiency,Standard Rated Energy Factor,"DX Coil Total Cooling Rate {W, HPWH Only}"
! <ZoneInfiltration Airflow Stats Nominal>,Name,Schedule Name,Zone Name, Zone Floor Area {m2}, # Zone Occupants,Design Volume Flow Rate {m3/s},Volume Flow Rate/Floor Area {m3/s/m2},Volume Flow Rate/Exterior Surface Area {m3/s/m2},ACH - Air Changes per Hour,Equation A - Constant Term Coefficient {},Equation B - Temperature Term Coefficient {1/C},Equation C - Velocity Term Coefficient {s/m}, Equation D - Velocity Squared Term Coefficient {s2/m2}
 ZoneInfiltration Airflow Stats Nominal, AUDITORIUM_ZN_1_FLR_1 INFILTRATION,ALWAYS ON DISCRETE,ALL_ST=AUDIENCE SEATING AREA PERMANENT - AUDITORIUM_FL=BUILDING STORY 1_SCH=C,988.00,197.7,8.889E-002,8.997E-005,6.880E-005,4.049E-002,0.000,0.000,0.224,0.000
 ZoneInfiltration Airflow Stats Nominal, CORNER_CLASS_1_POD_1_ZN_1_FLR_1 INFILTRATION,ALWAYS ON DISCRETE,ALL_ST=CLASSROOM/LECTURE HALL/TRAINING ROOM OTHER_FL=BUILDING STORY 1_SCH=D,297.00,39.6,5.504E-003,1.853E-005,2.293E-005,1.668E-002,0.000,0.000,0.224,0.000
 ZoneInfiltration Airflow Stats Nominal, CORNER_CLASS_1_POD_2_ZN_1_FLR_1 INFILTRATION,ALWAYS ON DISCRETE,ALL_ST=CLASSROOM/LECTURE HALL/TRAINING ROOM OTHER_FL=BUILDING STORY 1_SCH=D,297.00,39.6,5.504E-003,1.853E-005,2.293E-005,1.668E-002,0.000,0.000,0.224,0.000
 ZoneInfiltration Airflow Stats Nominal, CORNER_CLASS_1_POD_3_ZN_1_FLR_1 INFILTRATION,ALWAYS ON DISCRETE,ALL_ST=CLASSROOM/LECTURE HALL/TRAINING ROOM OTHER_FL=BUILDING STORY 1_SCH=D,297.00,39.6,5.504E-003,1.853E-005,2.293E-005,1.668E-002,0.000,0.000,0.224,0.000
 ZoneInfiltration Airflow Stats Nominal, MULT_CLASS_2_POD_1_ZN_1_FLR_1 INFILTRATION,ALWAYS ON DISCRETE,ALL_ST=CLASSROOM/LECTURE HALL/TRAINING ROOM OTHER_FL=BUILDING STORY 1_SCH=D 1,1431.00,190.9,1.459E-002,1.019E-005,2.293E-005,9.174E-003,0.000,0.000,0.224,0.000
 ZoneInfiltration Airflow Stats Nominal, MULT_CLASS_2_POD_2_ZN_1_FLR_1 INFILTRATION,ALWAYS ON DISCRETE,ALL_ST=CLASSROOM/LECTURE HALL/TRAINING ROOM OTHER_FL=BUILDING STORY 1_SCH=D 1,1431.00,190.9,1.459E-002,1.019E-005,2.293E-005,9.174E-003,0.000,0.000,0.224,0.000
 ZoneInfiltration Airflow Stats Nominal, MULT_CLASS_2_POD_3_ZN_1_FLR_1 INFILTRATION,ALWAYS ON DISCRETE,ALL_ST=CLASSROOM/LECTURE HALL/TRAINING ROOM OTHER_FL=BUILDING STORY 1_SCH=D 1,1431.00,190.9,1.459E-002,1.019E-005,2.293E-005,9.174E-003,0.000,0.000,0.224,0.000
 ZoneInfiltration Airflow Stats Nominal, MULT_CLASS_1_POD_1_ZN_1_FLR_1 INFILTRATION,ALWAYS ON DISCRETE,ALL_ST=CLASSROOM/LECTURE HALL/TRAINING ROOM OTHER_FL=BUILDING STORY 1_SCH=D 2,1431.00,190.9,1.459E-002,1.019E-005,2.293E-005,9.174E-003,0.000,0.000,0.224,0.000
 ZoneInfiltration Airflow Stats Nominal, MULT_CLASS_1_POD_2_ZN_1_FLR_1 INFILTRATION,ALWAYS ON DISCRETE,ALL_ST=CLASSROOM/LECTURE HALL/TRAINING ROOM OTHER_FL=BUILDING STORY 1_SCH=D 2,1431.00,190.9,1.459E-002,1.019E-005,2.293E-005,9.174E-003,0.000,0.000,0.224,0.000
 ZoneInfiltration Airflow Stats Nominal, MULT_CLASS_1_POD_3_ZN_1_FLR_1 INFILTRATION,ALWAYS ON DISCRETE,ALL_ST=CLASSROOM/LECTURE HALL/TRAINING ROOM OTHER_FL=BUILDING STORY 1_SCH=D 2,1431.00,190.9,1.459E-002,1.019E-005,2.293E-005,9.174E-003,0.000,0.000,0.224,0.000
 ZoneInfiltration Airflow Stats Nominal, CORNER_CLASS_2_POD_1_ZN_1_FLR_1 INFILTRATION,ALWAYS ON DISCRETE,ALL_ST=CLASSROOM/LECTURE HALL/TRAINING ROOM OTHER_FL=BUILDING STORY 1_SCH=D 3,297.00,39.6,5.504E-003,1.853E-005,2.293E-005,1.668E-002,0.000,0.000,0.224,0.000
 ZoneInfiltration Airflow Stats Nominal, CORNER_CLASS_2_POD_2_ZN_1_FLR_1 INFILTRATION,ALWAYS ON DISCRETE,ALL_ST=CLASSROOM/LECTURE HALL/TRAINING ROOM OTHER_FL=BUILDING STORY 1_SCH=D 3,297.00,39.6,5.504E-003,1.853E-005,2.293E-005,1.668E-002,0.000,0.000,0.224,0.000
 ZoneInfiltration Airflow Stats Nominal, CORNER_CLASS_2_POD_3_ZN_1_FLR_1 INFILTRATION,ALWAYS ON DISCRETE,ALL_ST=CLASSROOM/LECTURE HALL/TRAINING ROOM OTHER_FL=BUILDING STORY 1_SCH=D 3,297.00,39.6,5.504E-003,1.853E-005,2.293E-005,1.668E-002,0.000,0.000,0.224,0.000
 ZoneInfiltration Airflow Stats Nominal, CORNER_CLASS_2_POD_1_ZN_1_FLR_2 INFILTRATION,ALWAYS ON DISCRETE,ALL_ST=CLASSROOM/LECTURE HALL/TRAINING ROOM OTHER_FL=BUILDING STORY 2_SCH=D,297.00,39.6,1.232E-002,4.147E-005,2.293E-005,3.732E-002,0.000,0.000,0.224,0.000
 ZoneInfiltration Airflow Stats Nominal, CORNER_CLASS_2_POD_2_ZN_1_FLR_2 INFILTRATION,ALWAYS ON DISCRETE,ALL_ST=CLASSROOM/LECTURE HALL/TRAINING ROOM OTHER_FL=BUILDING STORY 2_SCH=D,297.00,39.6,1.232E-002,4.147E-005,2.293E-005,3.732E-002,0.000,0.000,0.224,0.000
 ZoneInfiltration Airflow Stats Nominal, CORNER_CLASS_2_POD_3_ZN_1_FLR_2 INFILTRATION,ALWAYS ON DISCRETE,ALL_ST=CLASSROOM/LECTURE HALL/TRAINING ROOM OTHER_FL=BUILDING STORY 2_SCH=D,297.00,39.6,1.232E-002,4.147E-005,2.293E-005,3.732E-002,0.000,0.000,0.224,0.000
 ZoneInfiltration Airflow Stats Nominal, MULT_CLASS_1_POD_1_ZN_1_FLR_2 INFILTRATION,ALWAYS ON DISCRETE,ALL_ST=CLASSROOM/LECTURE HALL/TRAINING ROOM OTHER_FL=BUILDING STORY 2_SCH=D 1,1431.00,190.9,4.740E-002,3.313E-005,2.293E-005,2.981E-002,0.000,0.000,0.224,0.000
 ZoneInfiltration Airflow Stats Nominal, MULT_CLASS_1_POD_2_ZN_1_FLR_2 INFILTRATION,ALWAYS ON DISCRETE,ALL_ST=CLASSROOM/LECTURE HALL/TRAINING ROOM OTHER_FL=BUILDING STORY 2_SCH=D 1,1431.00,190.9,4.740E-002,3.313E-005,2.293E-005,2.981E-002,0.000,0.000,0.224,0.000
 ZoneInfiltration Airflow Stats Nominal, MULT_CLASS_1_POD_3_ZN_1_FLR_2 INFILTRATION,ALWAYS ON DISCRETE,ALL_ST=CLASSROOM/LECTURE HALL/TRAINING ROOM OTHER_FL=BUILDING STORY 2_SCH=D 1,1431.00,190.9,4.740E-002,3.313E-005,2.293E-005,2.981E-002,0.000,0.000,0.224,0.000
 ZoneInfiltration Airflow Stats Nominal, MULT_CLASS_2_POD_1_ZN_1_FLR_2 INFILTRATION,ALWAYS ON DISCRETE,ALL_ST=CLASSROOM/LECTURE HALL/TRAINING ROOM OTHER_FL=BUILDING STORY 2_SCH=D 2,1431.00,190.9,4.740E-002,3.313E-005,2.293E-005,2.981E-002,0.000,0.000,0.224,0.000
 ZoneInfiltration Airflow Stats Nominal, MULT_CLASS_2_POD_2_ZN_1_FLR_2 INFILTRATION,ALWAYS ON DISCRETE,ALL_ST=CLASSROOM/LECTURE HALL/TRAINING ROOM OTHER_FL=BUILDING STORY 2_SCH=D 2,1431.00,190.9,4.740E-002,3.313E-005,2.293E-005,2.981E-002,0.000,0.000,0.224,0.000
 ZoneInfiltration Airflow Stats Nominal, MULT_CLASS_2_POD_3_ZN_1_FLR_2 INFILTRATION,ALWAYS ON DISCRETE,ALL_ST=CLASSROOM/LECTURE HALL/TRAINING ROOM OTHER_FL=BUILDING STORY 2_SCH=D 2,1431.00,190.9,4.740E-002,3.313E-005,2.293E-005,2.981E-002,0.000,0.000,0.224,0.000
 ZoneInfiltration Airflow Stats Nominal, CORNER_CLASS_1_POD_1_ZN_1_FLR_2 INFILTRATION,ALWAYS ON DISCRETE,ALL_ST=CLASSROOM/LECTURE HALL/TRAINING ROOM OTHER_FL=BUILDING STORY 2_SCH=D 3,297.00,39.6,1.232E-002,4.147E-005,2.293E-005,3.732E-002,0.000,0.000,0.224,0.000
 ZoneInfiltration Airflow Stats Nominal, CORNER_CLASS_1_POD_2_ZN_1_FLR_2 INFILTRATION,ALWAYS ON DISCRETE,ALL_ST=CLASSROOM/LECTURE HALL/TRAINING ROOM OTHER_FL=BUILDING STORY 2_SCH=D 3,297.00,39.6,1.232E-002,4.147E-005,2.293E-005,3.732E-002,0.000,0.000,0.224,0.000
 ZoneInfiltration Airflow Stats Nominal, CORNER_CLASS_1_POD_3_ZN_1_FLR_2 INFILTRATION,ALWAYS ON DISCRETE,ALL_ST=CLASSROOM/LECTURE HALL/TRAINING ROOM OTHER_FL=BUILDING STORY 2_SCH=D 3,297.00,39.6,1.232E-002,4.147E-005,2.293E-005,3.732E-002,0.000,0.000,0.224,0.000
 ZoneInfiltration Airflow Stats Nominal, CAFETERIA_ZN_1_FLR_1 INFILTRATION,ALWAYS ON DISCRETE,ALL_ST=CONFERENCE/MEETING/MULTI-PURPOSE ROOM_FL=BUILDING STORY 1_SCH=C,624.00,124.8,1.376E-002,2.205E-005,6.880E-005,1.985E-002,0.000,0.000,0.224,0.000
 ZoneInfiltration Airflow Stats Nominal, KITCHEN_ZN_1_FLR_1 INFILTRATION,ALWAYS ON DISCRETE,ALL_ST=FOOD PREPARATION AREA_FL=BUILDING STORY 1_SCH=B,216.00,10.8,2.477E-003,1.147E-005,6.880E-005,1.032E-002,0.000,0.000,0.224,0.000
 ZoneInfiltration Airflow Stats Nominal, GYM_ZN_1_FLR_1 INFILTRATION,ALWAYS ON DISCRETE,ALL_ST=GYMNASIUM/FITNESS CENTRE PLAYING AREA_FL=BUILDING STORY 1_SCH=B,1976.00,395.3,0.136,6.880E-005,6.880E-005,3.096E-002,0.000,0.000,0.224,0.000
 ZoneInfiltration Airflow Stats Nominal, AUX_GYM_ZN_1_FLR_1 INFILTRATION,ALWAYS ON DISCRETE,ALL_ST=GYMNASIUM/FITNESS CENTRE PLAYING AREA_FL=BUILDING STORY 1_SCH=B 1,1248.00,249.7,0.128,1.023E-004,6.880E-005,4.604E-002,0.000,0.000,0.224,0.000
 ZoneInfiltration Airflow Stats Nominal, LIBRARY_MEDIA_CENTER_ZN_1_FLR_2 INFILTRATION,ALWAYS ON DISCRETE,ALL_ST=LIBRARY READING AREA_FL=BUILDING STORY 2_SCH=C,840.00,42.0,7.403E-002,8.813E-005,6.880E-005,7.932E-002,0.000,0.000,0.224,0.000
 ZoneInfiltration Airflow Stats Nominal, LOBBY_ZN_1_FLR_1 INFILTRATION,ALWAYS ON DISCRETE,ALL_ST=LOBBY - OTHER_FL=BUILDING STORY 1_SCH=C,210.00,21.0,4.128E-003,1.966E-005,6.880E-005,1.769E-002,0.000,0.000,0.224,0.000
 ZoneInfiltration Airflow Stats Nominal, LOBBY_ZN_1_FLR_2 INFILTRATION,ALWAYS ON DISCRETE,ALL_ST=LOBBY - OTHER_FL=BUILDING STORY 2_SCH=C,210.00,21.0,1.858E-002,8.846E-005,6.880E-005,7.961E-002,0.000,0.000,0.224,0.000
 ZoneInfiltration Airflow Stats Nominal, OFFICES_ZN_1_FLR_1 INFILTRATION,ALWAYS ON DISCRETE,ALL_ST=OFFICE ENCLOSED <= 25 M2_FL=BUILDING STORY 1_SCH=A,532.00,26.6,1.431E-002,2.690E-005,6.880E-005,2.421E-002,0.000,0.000,0.224,0.000
 ZoneInfiltration Airflow Stats Nominal, OFFICES_ZN_1_FLR_2 INFILTRATION,ALWAYS ON DISCRETE,ALL_ST=OFFICE ENCLOSED <= 25 M2_FL=BUILDING STORY 2_SCH=A,532.00,26.6,5.091E-002,9.570E-005,6.880E-005,8.613E-002,0.000,0.000,0.224,0.000
 ZoneInfiltration Airflow Stats Nominal, BATHROOMS_ZN_1_FLR_1 INFILTRATION,ALWAYS ON DISCRETE,WET_ST=WASHROOM - OTHER-SCH-D_FL=BUILDING STORY 1_SCHD,210.00,7.0,4.954E-003,2.359E-005,6.880E-005,2.123E-002,0.000,0.000,0.224,0.000
 ZoneInfiltration Airflow Stats Nominal, BATHROOMS_ZN_1_FLR_2 INFILTRATION,ALWAYS ON DISCRETE,WET_ST=WASHROOM - OTHER-SCH-D_FL=BUILDING STORY 2_SCHD,210.00,7.0,1.940E-002,9.239E-005,6.880E-005,8.315E-002,0.000,0.000,0.224,0.000
 ZoneInfiltration Airflow Stats Nominal, MAIN_CORRIDOR_ZN_1_FLR_1 INFILTRATION,ALWAYS ON DISCRETE,WILD_ST=CORRIDOR/TRANSITION AREA OTHER-SCH-D_FL=BUILDING STORY 1_SCH=D,1140.00,11.4,9.632E-003,8.449E-006,6.880E-005,7.604E-003,0.000,0.000,0.224,0.000
 ZoneInfiltration Airflow Stats Nominal, CORRIDOR_POD_1_ZN_1_FLR_1 INFILTRATION,ALWAYS ON DISCRETE,WILD_ST=CORRIDOR/TRANSITION AREA OTHER-SCH-D_FL=BUILDING STORY 1_SCH=D 1,960.00,9.6,1.376E-003,1.433E-006,2.293E-005,1.290E-003,0.000,0.000,0.224,0.000
 ZoneInfiltration Airflow Stats Nominal, CORRIDOR_POD_2_ZN_1_FLR_1 INFILTRATION,ALWAYS ON DISCRETE,WILD_ST=CORRIDOR/TRANSITION AREA OTHER-SCH-D_FL=BUILDING STORY 1_SCH=D 1,960.00,9.6,1.376E-003,1.433E-006,2.293E-005,1.290E-003,0.000,0.000,0.224,0.000
 ZoneInfiltration Airflow Stats Nominal, CORRIDOR_POD_3_ZN_1_FLR_1 INFILTRATION,ALWAYS ON DISCRETE,WILD_ST=CORRIDOR/TRANSITION AREA OTHER-SCH-D_FL=BUILDING STORY 1_SCH=D 1,960.00,9.6,1.376E-003,1.433E-006,2.293E-005,1.290E-003,0.000,0.000,0.224,0.000
 ZoneInfiltration Airflow Stats Nominal, MAIN_CORRIDOR_ZN_1_FLR_2 INFILTRATION,ALWAYS ON DISCRETE,WILD_ST=CORRIDOR/TRANSITION AREA OTHER-SCH-D_FL=BUILDING STORY 2_SCH=D,1140.00,11.4,8.807E-002,7.725E-005,6.880E-005,6.953E-002,0.000,0.000,0.224,0.000
 ZoneInfiltration Airflow Stats Nominal, CORRIDOR_POD_1_ZN_1_FLR_2 INFILTRATION,ALWAYS ON DISCRETE,WILD_ST=CORRIDOR/TRANSITION AREA OTHER-SCH-D_FL=BUILDING STORY 2_SCH=D 1,960.00,9.6,2.339E-002,2.437E-005,2.293E-005,2.193E-002,0.000,0.000,0.224,0.000
 ZoneInfiltration Airflow Stats Nominal, CORRIDOR_POD_2_ZN_1_FLR_2 INFILTRATION,ALWAYS ON DISCRETE,WILD_ST=CORRIDOR/TRANSITION AREA OTHER-SCH-D_FL=BUILDING STORY 2_SCH=D 1,960.00,9.6,2.339E-002,2.437E-005,2.293E-005,2.193E-002,0.000,0.000,0.224,0.000
 ZoneInfiltration Airflow Stats Nominal, CORRIDOR_POD_3_ZN_1_FLR_2 INFILTRATION,ALWAYS ON DISCRETE,WILD_ST=CORRIDOR/TRANSITION AREA OTHER-SCH-D_FL=BUILDING STORY 2_SCH=D 1,960.00,9.6,2.339E-002,2.437E-005,2.293E-005,2.193E-002,0.000,0.000,0.224,0.000
 ZoneInfiltration Airflow Stats Nominal, MECH_ZN_1_FLR_2 INFILTRATION,ALWAYS ON DISCRETE,WILD_ST=ELECTRICAL/MECHANICAL ROOM-SCH-D_FL=BUILDING STORY 2_SCH=D,342.00,1.7,2.353E-002,6.880E-005,6.880E-005,6.192E-002,0.000,0.000,0.224,0.000
! <AirFlow Model>, Simple
 AirFlow Model, Simple
! <RoomAir Model>, Zone Name, Mixing/Mundt/UCSDDV/UCSDCV/UCSDUFI/UCSDUFE/User Defined
RoomAir Model,ALL_ST=AUDIENCE SEATING AREA PERMANENT - AUDITORIUM_FL=BUILDING STORY 1_SCH=C,Mixing/Well-Stirred
RoomAir Model,ALL_ST=CLASSROOM/LECTURE HALL/TRAINING ROOM OTHER_FL=BUILDING STORY 1_SCH=D,Mixing/Well-Stirred
RoomAir Model,ALL_ST=CLASSROOM/LECTURE HALL/TRAINING ROOM OTHER_FL=BUILDING STORY 1_SCH=D 1,Mixing/Well-Stirred
RoomAir Model,ALL_ST=CLASSROOM/LECTURE HALL/TRAINING ROOM OTHER_FL=BUILDING STORY 1_SCH=D 2,Mixing/Well-Stirred
RoomAir Model,ALL_ST=CLASSROOM/LECTURE HALL/TRAINING ROOM OTHER_FL=BUILDING STORY 1_SCH=D 3,Mixing/Well-Stirred
RoomAir Model,ALL_ST=CLASSROOM/LECTURE HALL/TRAINING ROOM OTHER_FL=BUILDING STORY 2_SCH=D,Mixing/Well-Stirred
RoomAir Model,ALL_ST=CLASSROOM/LECTURE HALL/TRAINING ROOM OTHER_FL=BUILDING STORY 2_SCH=D 1,Mixing/Well-Stirred
RoomAir Model,ALL_ST=CLASSROOM/LECTURE HALL/TRAINING ROOM OTHER_FL=BUILDING STORY 2_SCH=D 2,Mixing/Well-Stirred
RoomAir Model,ALL_ST=CLASSROOM/LECTURE HALL/TRAINING ROOM OTHER_FL=BUILDING STORY 2_SCH=D 3,Mixing/Well-Stirred
RoomAir Model,ALL_ST=CONFERENCE/MEETING/MULTI-PURPOSE ROOM_FL=BUILDING STORY 1_SCH=C,Mixing/Well-Stirred
RoomAir Model,ALL_ST=FOOD PREPARATION AREA_FL=BUILDING STORY 1_SCH=B,Mixing/Well-Stirred
RoomAir Model,ALL_ST=GYMNASIUM/FITNESS CENTRE PLAYING AREA_FL=BUILDING STORY 1_SCH=B,Mixing/Well-Stirred
RoomAir Model,ALL_ST=GYMNASIUM/FITNESS CENTRE PLAYING AREA_FL=BUILDING STORY 1_SCH=B 1,Mixing/Well-Stirred
RoomAir Model,ALL_ST=LIBRARY READING AREA_FL=BUILDING STORY 2_SCH=C,Mixing/Well-Stirred
RoomAir Model,ALL_ST=LOBBY - OTHER_FL=BUILDING STORY 1_SCH=C,Mixing/Well-Stirred
RoomAir Model,ALL_ST=LOBBY - OTHER_FL=BUILDING STORY 2_SCH=C,Mixing/Well-Stirred
RoomAir Model,ALL_ST=OFFICE ENCLOSED <= 25 M2_FL=BUILDING STORY 1_SCH=A,Mixing/Well-Stirred
RoomAir Model,ALL_ST=OFFICE ENCLOSED <= 25 M2_FL=BUILDING STORY 2_SCH=A,Mixing/Well-Stirred
RoomAir Model,WET_ST=WASHROOM - OTHER-SCH-D_FL=BUILDING STORY 1_SCHD,Mixing/Well-Stirred
RoomAir Model,WET_ST=WASHROOM - OTHER-SCH-D_FL=BUILDING STORY 2_SCHD,Mixing/Well-Stirred
RoomAir Model,WILD_ST=CORRIDOR/TRANSITION AREA OTHER-SCH-D_FL=BUILDING STORY 1_SCH=D,Mixing/Well-Stirred
RoomAir Model,WILD_ST=CORRIDOR/TRANSITION AREA OTHER-SCH-D_FL=BUILDING STORY 1_SCH=D 1,Mixing/Well-Stirred
RoomAir Model,WILD_ST=CORRIDOR/TRANSITION AREA OTHER-SCH-D_FL=BUILDING STORY 2_SCH=D,Mixing/Well-Stirred
RoomAir Model,WILD_ST=CORRIDOR/TRANSITION AREA OTHER-SCH-D_FL=BUILDING STORY 2_SCH=D 1,Mixing/Well-Stirred
RoomAir Model,WILD_ST=ELECTRICAL/MECHANICAL ROOM-SCH-D_FL=BUILDING STORY 1_SCH=D,Mixing/Well-Stirred
RoomAir Model,WILD_ST=ELECTRICAL/MECHANICAL ROOM-SCH-D_FL=BUILDING STORY 2_SCH=D,Mixing/Well-Stirred
! <AirflowNetwork Model:Control>, No Multizone or Distribution/Multizone with Distribution/Multizone without Distribution/Multizone with Distribution only during Fan Operation
AirflowNetwork Model:Control,NoMultizoneOrDistribution
! <Zone Volume Capacitance Multiplier>, Sensible Heat Capacity Multiplier, Moisture Capacity Multiplier, Carbon Dioxide Capacity Multiplier, Generic Contaminant Capacity Multiplier
Zone Volume Capacitance Multiplier,   1.000 ,   1.000,   1.000,   1.000
! <Load Timesteps in Zone Design Calculation Averaging Window>, Value
 Load Timesteps in Zone Design Calculation Averaging Window,    4
! <Heating Sizing Factor Information>, Sizing Factor ID, Value
 Heating Sizing Factor Information, Global,   1.3000    
 Heating Sizing Factor Information, Zone ALL_ST=AUDIENCE SEATING AREA PERMANENT - AUDITORIUM_FL=BUILDING STORY 1_SCH=C,   1.3000    
 Heating Sizing Factor Information, Zone ALL_ST=CLASSROOM/LECTURE HALL/TRAINING ROOM OTHER_FL=BUILDING STORY 1_SCH=D,   1.3000    
 Heating Sizing Factor Information, Zone ALL_ST=CLASSROOM/LECTURE HALL/TRAINING ROOM OTHER_FL=BUILDING STORY 1_SCH=D 1,   1.3000    
 Heating Sizing Factor Information, Zone ALL_ST=CLASSROOM/LECTURE HALL/TRAINING ROOM OTHER_FL=BUILDING STORY 1_SCH=D 2,   1.3000    
 Heating Sizing Factor Information, Zone ALL_ST=CLASSROOM/LECTURE HALL/TRAINING ROOM OTHER_FL=BUILDING STORY 1_SCH=D 3,   1.3000    
 Heating Sizing Factor Information, Zone ALL_ST=CLASSROOM/LECTURE HALL/TRAINING ROOM OTHER_FL=BUILDING STORY 2_SCH=D,   1.3000    
 Heating Sizing Factor Information, Zone ALL_ST=CLASSROOM/LECTURE HALL/TRAINING ROOM OTHER_FL=BUILDING STORY 2_SCH=D 1,   1.3000    
 Heating Sizing Factor Information, Zone ALL_ST=CLASSROOM/LECTURE HALL/TRAINING ROOM OTHER_FL=BUILDING STORY 2_SCH=D 2,   1.3000    
 Heating Sizing Factor Information, Zone ALL_ST=CLASSROOM/LECTURE HALL/TRAINING ROOM OTHER_FL=BUILDING STORY 2_SCH=D 3,   1.3000    
 Heating Sizing Factor Information, Zone ALL_ST=CONFERENCE/MEETING/MULTI-PURPOSE ROOM_FL=BUILDING STORY 1_SCH=C,   1.3000    
 Heating Sizing Factor Information, Zone ALL_ST=FOOD PREPARATION AREA_FL=BUILDING STORY 1_SCH=B,   1.3000    
 Heating Sizing Factor Information, Zone ALL_ST=GYMNASIUM/FITNESS CENTRE PLAYING AREA_FL=BUILDING STORY 1_SCH=B,   1.3000    
 Heating Sizing Factor Information, Zone ALL_ST=GYMNASIUM/FITNESS CENTRE PLAYING AREA_FL=BUILDING STORY 1_SCH=B 1,   1.3000    
 Heating Sizing Factor Information, Zone ALL_ST=LIBRARY READING AREA_FL=BUILDING STORY 2_SCH=C,   1.3000    
 Heating Sizing Factor Information, Zone ALL_ST=LOBBY - OTHER_FL=BUILDING STORY 1_SCH=C,   1.3000    
 Heating Sizing Factor Information, Zone ALL_ST=LOBBY - OTHER_FL=BUILDING STORY 2_SCH=C,   1.3000    
 Heating Sizing Factor Information, Zone ALL_ST=OFFICE ENCLOSED <= 25 M2_FL=BUILDING STORY 1_SCH=A,   1.3000    
 Heating Sizing Factor Information, Zone ALL_ST=OFFICE ENCLOSED <= 25 M2_FL=BUILDING STORY 2_SCH=A,   1.3000    
 Heating Sizing Factor Information, Zone WET_ST=WASHROOM - OTHER-SCH-D_FL=BUILDING STORY 1_SCHD,   1.3000    
 Heating Sizing Factor Information, Zone WET_ST=WASHROOM - OTHER-SCH-D_FL=BUILDING STORY 2_SCHD,   1.3000    
 Heating Sizing Factor Information, Zone WILD_ST=CORRIDOR/TRANSITION AREA OTHER-SCH-D_FL=BUILDING STORY 1_SCH=D,   1.3000    
 Heating Sizing Factor Information, Zone WILD_ST=CORRIDOR/TRANSITION AREA OTHER-SCH-D_FL=BUILDING STORY 1_SCH=D 1,   1.3000    
 Heating Sizing Factor Information, Zone WILD_ST=CORRIDOR/TRANSITION AREA OTHER-SCH-D_FL=BUILDING STORY 2_SCH=D,   1.3000    
 Heating Sizing Factor Information, Zone WILD_ST=CORRIDOR/TRANSITION AREA OTHER-SCH-D_FL=BUILDING STORY 2_SCH=D 1,   1.3000    
 Heating Sizing Factor Information, Zone WILD_ST=ELECTRICAL/MECHANICAL ROOM-SCH-D_FL=BUILDING STORY 1_SCH=D,   1.3000    
 Heating Sizing Factor Information, Zone WILD_ST=ELECTRICAL/MECHANICAL ROOM-SCH-D_FL=BUILDING STORY 2_SCH=D,   1.3000    
! <Cooling Sizing Factor Information>, Sizing Factor ID, Value
 Cooling Sizing Factor Information, Global,   1.1000    
 Cooling Sizing Factor Information, Zone ALL_ST=AUDIENCE SEATING AREA PERMANENT - AUDITORIUM_FL=BUILDING STORY 1_SCH=C,   1.1000    
 Cooling Sizing Factor Information, Zone ALL_ST=CLASSROOM/LECTURE HALL/TRAINING ROOM OTHER_FL=BUILDING STORY 1_SCH=D,   1.1000    
 Cooling Sizing Factor Information, Zone ALL_ST=CLASSROOM/LECTURE HALL/TRAINING ROOM OTHER_FL=BUILDING STORY 1_SCH=D 1,   1.1000    
 Cooling Sizing Factor Information, Zone ALL_ST=CLASSROOM/LECTURE HALL/TRAINING ROOM OTHER_FL=BUILDING STORY 1_SCH=D 2,   1.1000    
 Cooling Sizing Factor Information, Zone ALL_ST=CLASSROOM/LECTURE HALL/TRAINING ROOM OTHER_FL=BUILDING STORY 1_SCH=D 3,   1.1000    
 Cooling Sizing Factor Information, Zone ALL_ST=CLASSROOM/LECTURE HALL/TRAINING ROOM OTHER_FL=BUILDING STORY 2_SCH=D,   1.1000    
 Cooling Sizing Factor Information, Zone ALL_ST=CLASSROOM/LECTURE HALL/TRAINING ROOM OTHER_FL=BUILDING STORY 2_SCH=D 1,   1.1000    
 Cooling Sizing Factor Information, Zone ALL_ST=CLASSROOM/LECTURE HALL/TRAINING ROOM OTHER_FL=BUILDING STORY 2_SCH=D 2,   1.1000    
 Cooling Sizing Factor Information, Zone ALL_ST=CLASSROOM/LECTURE HALL/TRAINING ROOM OTHER_FL=BUILDING STORY 2_SCH=D 3,   1.1000    
 Cooling Sizing Factor Information, Zone ALL_ST=CONFERENCE/MEETING/MULTI-PURPOSE ROOM_FL=BUILDING STORY 1_SCH=C,   1.1000    
 Cooling Sizing Factor Information, Zone ALL_ST=FOOD PREPARATION AREA_FL=BUILDING STORY 1_SCH=B,   1.1000    
 Cooling Sizing Factor Information, Zone ALL_ST=GYMNASIUM/FITNESS CENTRE PLAYING AREA_FL=BUILDING STORY 1_SCH=B,   1.1000    
 Cooling Sizing Factor Information, Zone ALL_ST=GYMNASIUM/FITNESS CENTRE PLAYING AREA_FL=BUILDING STORY 1_SCH=B 1,   1.1000    
 Cooling Sizing Factor Information, Zone ALL_ST=LIBRARY READING AREA_FL=BUILDING STORY 2_SCH=C,   1.1000    
 Cooling Sizing Factor Information, Zone ALL_ST=LOBBY - OTHER_FL=BUILDING STORY 1_SCH=C,   1.1000    
 Cooling Sizing Factor Information, Zone ALL_ST=LOBBY - OTHER_FL=BUILDING STORY 2_SCH=C,   1.1000    
 Cooling Sizing Factor Information, Zone ALL_ST=OFFICE ENCLOSED <= 25 M2_FL=BUILDING STORY 1_SCH=A,   1.1000    
 Cooling Sizing Factor Information, Zone ALL_ST=OFFICE ENCLOSED <= 25 M2_FL=BUILDING STORY 2_SCH=A,   1.1000    
 Cooling Sizing Factor Information, Zone WET_ST=WASHROOM - OTHER-SCH-D_FL=BUILDING STORY 1_SCHD,   1.1000    
 Cooling Sizing Factor Information, Zone WET_ST=WASHROOM - OTHER-SCH-D_FL=BUILDING STORY 2_SCHD,   1.1000    
 Cooling Sizing Factor Information, Zone WILD_ST=CORRIDOR/TRANSITION AREA OTHER-SCH-D_FL=BUILDING STORY 1_SCH=D,   1.1000    
 Cooling Sizing Factor Information, Zone WILD_ST=CORRIDOR/TRANSITION AREA OTHER-SCH-D_FL=BUILDING STORY 1_SCH=D 1,   1.1000    
 Cooling Sizing Factor Information, Zone WILD_ST=CORRIDOR/TRANSITION AREA OTHER-SCH-D_FL=BUILDING STORY 2_SCH=D,   1.1000    
 Cooling Sizing Factor Information, Zone WILD_ST=CORRIDOR/TRANSITION AREA OTHER-SCH-D_FL=BUILDING STORY 2_SCH=D 1,   1.1000    
 Cooling Sizing Factor Information, Zone WILD_ST=ELECTRICAL/MECHANICAL ROOM-SCH-D_FL=BUILDING STORY 1_SCH=D,   1.1000    
 Cooling Sizing Factor Information, Zone WILD_ST=ELECTRICAL/MECHANICAL ROOM-SCH-D_FL=BUILDING STORY 2_SCH=D,   1.1000    
! <Zone Sizing Information>, Zone Name, Load Type, Calc Des Load {W}, User Des Load {W}, Calc Des Air Flow Rate {m3/s}, User Des Air Flow Rate {m3/s}, Design Day Name, Date/Time of Peak, Temperature at Peak {C}, Humidity Ratio at Peak {kgWater/kgDryAir}, Floor Area {m2}, # Occupants, Calc Outdoor Air Flow Rate {m3/s}, Calc DOAS Heat Addition Rate {W}
 Zone Sizing Information, ALL_ST=AUDIENCE SEATING AREA PERMANENT - AUDITORIUM_FL=BUILDING STORY 1_SCH=C, Cooling, 20446.65439, 22491.31983, 1.54740, 4.06542, WINDSOR INTL AP ANN CLG .4% CONDNS DB=>MWB, 7/21 14:00:00, 32.00000, 1.45394E-002, 988.00000, 197.67181, 4.06542, 0.00000
 Zone Sizing Information, ALL_ST=AUDIENCE SEATING AREA PERMANENT - AUDITORIUM_FL=BUILDING STORY 1_SCH=C, Heating, 18394.50268, 23912.85348, 0.71006, 4.06542, WINDSOR INTL AP ANN HTG 99.6% CONDNS DB, 1/21 09:00:00, -15.50000, 9.92508E-004, 988.00000, 197.67181, 4.06542, 0.00000
 Zone Sizing Information, ALL_ST=CLASSROOM/LECTURE HALL/TRAINING ROOM OTHER_FL=BUILDING STORY 1_SCH=D, Cooling, 9979.35444, 10977.28988, 0.75530, 0.83083, WINDSOR INTL AP ANN CLG .4% CONDNS DB=>MWB, 7/21 16:45:00, 30.90800, 1.45394E-002, 297.00000, 39.61439, 0.82680, 0.00000
 Zone Sizing Information, ALL_ST=CLASSROOM/LECTURE HALL/TRAINING ROOM OTHER_FL=BUILDING STORY 1_SCH=D, Heating, 6347.66239, 8251.96111, 0.24855, 0.82680, WINDSOR INTL AP ANN HTG 99.6% CONDNS DB, 1/21 09:00:00, -15.50000, 9.92508E-004, 297.00000, 39.61439, 0.82680, 0.00000
 Zone Sizing Information, ALL_ST=CLASSROOM/LECTURE HALL/TRAINING ROOM OTHER_FL=BUILDING STORY 1_SCH=D 1, Cooling, 21164.55984, 23281.01582, 1.60199, 3.98368, WINDSOR INTL AP ANN CLG .4% CONDNS DB=>MWB, 7/21 16:00:00, 31.45400, 1.45394E-002, 1431.00000, 190.86934, 3.98368, 0.00000
 Zone Sizing Information, ALL_ST=CLASSROOM/LECTURE HALL/TRAINING ROOM OTHER_FL=BUILDING STORY 1_SCH=D 1, Heating, 19964.24748, 25953.52173, 0.77777, 3.98368, WINDSOR INTL AP ANN HTG 99.6% CONDNS DB, 1/21 09:00:00, -15.50000, 9.92508E-004, 1431.00000, 190.86934, 3.98368, 0.00000
 Zone Sizing Information, ALL_ST=CLASSROOM/LECTURE HALL/TRAINING ROOM OTHER_FL=BUILDING STORY 1_SCH=D 2, Cooling, 20866.25671, 22952.88238, 1.57942, 3.98368, WINDSOR INTL AP ANN CLG .4% CONDNS DB=>MWB, 7/21 16:00:00, 31.45400, 1.45394E-002, 1431.00000, 190.86934, 3.98368, 0.00000
 Zone Sizing Information, ALL_ST=CLASSROOM/LECTURE HALL/TRAINING ROOM OTHER_FL=BUILDING STORY 1_SCH=D 2, Heating, 19871.52213, 25832.97877, 0.77411, 3.98368, WINDSOR INTL AP ANN HTG 99.6% CONDNS DB, 1/21 09:00:00, -15.50000, 9.92508E-004, 1431.00000, 190.86934, 3.98368, 0.00000
 Zone Sizing Information, ALL_ST=CLASSROOM/LECTURE HALL/TRAINING ROOM OTHER_FL=BUILDING STORY 1_SCH=D 3, Cooling, 10046.38736, 11051.02610, 0.76037, 0.83641, WINDSOR INTL AP ANN CLG .4% CONDNS DB=>MWB, 7/21 16:45:00, 30.90800, 1.45394E-002, 297.00000, 39.61439, 0.82680, 0.00000
 Zone Sizing Information, ALL_ST=CLASSROOM/LECTURE HALL/TRAINING ROOM OTHER_FL=BUILDING STORY 1_SCH=D 3, Heating, 6363.91551, 8273.09017, 0.24919, 0.82680, WINDSOR INTL AP ANN HTG 99.6% CONDNS DB, 1/21 09:00:00, -15.50000, 9.92508E-004, 297.00000, 39.61439, 0.82680, 0.00000
 Zone Sizing Information, ALL_ST=CLASSROOM/LECTURE HALL/TRAINING ROOM OTHER_FL=BUILDING STORY 2_SCH=D, Cooling, 12478.64502, 13726.50952, 0.94449, 1.03894, WINDSOR INTL AP ANN CLG .4% CONDNS DB=>MWB, 7/21 16:30:00, 31.09000, 1.45394E-002, 297.00000, 39.61439, 0.82680, 0.00000
 Zone Sizing Information, ALL_ST=CLASSROOM/LECTURE HALL/TRAINING ROOM OTHER_FL=BUILDING STORY 2_SCH=D, Heating, 7827.03758, 10175.14886, 0.30687, 0.82680, WINDSOR INTL AP ANN HTG 99.6% CONDNS DB, 1/21 09:00:00, -15.50000, 9.92508E-004, 297.00000, 39.61439, 0.82680, 0.00000
 Zone Sizing Information, ALL_ST=CLASSROOM/LECTURE HALL/TRAINING ROOM OTHER_FL=BUILDING STORY 2_SCH=D 1, Cooling, 30990.55504, 34089.61054, 2.34576, 3.98368, WINDSOR INTL AP ANN CLG .4% CONDNS DB=>MWB, 7/21 14:30:00, 32.00000, 1.45394E-002, 1431.00000, 190.86934, 3.98368, 0.00000
 Zone Sizing Information, ALL_ST=CLASSROOM/LECTURE HALL/TRAINING ROOM OTHER_FL=BUILDING STORY 2_SCH=D 1, Heating, 27016.28749, 35121.17374, 1.05574, 3.98368, WINDSOR INTL AP ANN HTG 99.6% CONDNS DB, 1/21 09:00:00, -15.50000, 9.92508E-004, 1431.00000, 190.86934, 3.98368, 0.00000
 Zone Sizing Information, ALL_ST=CLASSROOM/LECTURE HALL/TRAINING ROOM OTHER_FL=BUILDING STORY 2_SCH=D 2, Cooling, 31402.88214, 34543.17035, 2.37696, 3.98368, WINDSOR INTL AP ANN CLG .4% CONDNS DB=>MWB, 7/21 14:30:00, 32.00000, 1.45394E-002, 1431.00000, 190.86934, 3.98368, 0.00000
 Zone Sizing Information, ALL_ST=CLASSROOM/LECTURE HALL/TRAINING ROOM OTHER_FL=BUILDING STORY 2_SCH=D 2, Heating, 27093.84739, 35222.00161, 1.05880, 3.98368, WINDSOR INTL AP ANN HTG 99.6% CONDNS DB, 1/21 09:00:00, -15.50000, 9.92508E-004, 1431.00000, 190.86934, 3.98368, 0.00000
 Zone Sizing Information, ALL_ST=CLASSROOM/LECTURE HALL/TRAINING ROOM OTHER_FL=BUILDING STORY 2_SCH=D 3, Cooling, 12415.12762, 13656.64038, 0.93969, 1.03365, WINDSOR INTL AP ANN CLG .4% CONDNS DB=>MWB, 7/21 16:30:00, 31.09000, 1.45394E-002, 297.00000, 39.61439, 0.82680, 0.00000
 Zone Sizing Information, ALL_ST=CLASSROOM/LECTURE HALL/TRAINING ROOM OTHER_FL=BUILDING STORY 2_SCH=D 3, Heating, 7813.59990, 10157.67986, 0.30634, 0.82680, WINDSOR INTL AP ANN HTG 99.6% CONDNS DB, 1/21 09:00:00, -15.50000, 9.92508E-004, 297.00000, 39.61439, 0.82680, 0.00000
 Zone Sizing Information, ALL_ST=CONFERENCE/MEETING/MULTI-PURPOSE ROOM_FL=BUILDING STORY 1_SCH=C, Cooling, 11804.28597, 12984.71456, 0.89369, 0.98306, WINDSOR INTL AP ANN CLG .4% CONDNS DB=>MWB, 7/21 17:00:00, 30.72600, 1.45394E-002, 624.00000, 124.84536, 0.98268, 0.00000
 Zone Sizing Information, ALL_ST=CONFERENCE/MEETING/MULTI-PURPOSE ROOM_FL=BUILDING STORY 1_SCH=C, Heating, 7036.91287, 9147.98673, 0.27314, 0.98268, WINDSOR INTL AP ANN HTG 99.6% CONDNS DB, 1/21 09:00:00, -15.50000, 9.92508E-004, 624.00000, 124.84536, 0.98268, 0.00000
 Zone Sizing Information, ALL_ST=FOOD PREPARATION AREA_FL=BUILDING STORY 1_SCH=B, Cooling, 4774.07496, 5251.48246, 0.34361, 0.37797, WINDSOR INTL AP ANN CLG .4% CONDNS DB=>MWB, 7/21 09:00:00, 26.99500, 1.45394E-002, 216.00000, 10.80392, 0.29627, 0.00000
 Zone Sizing Information, ALL_ST=FOOD PREPARATION AREA_FL=BUILDING STORY 1_SCH=B, Heating, 1794.66356, 2333.06263, 6.92023E-002, 0.29627, WINDSOR INTL AP ANN HTG 99.6% CONDNS DB, 1/21 10:00:00, -15.50000, 9.92508E-004, 216.00000, 10.80392, 0.29627, 0.00000
 Zone Sizing Information, ALL_ST=GYMNASIUM/FITNESS CENTRE PLAYING AREA_FL=BUILDING STORY 1_SCH=B, Cooling, 39694.48999, 43663.93899, 3.00410, 3.30451, WINDSOR INTL AP ANN CLG .4% CONDNS DB=>MWB, 7/21 13:00:00, 31.54500, 1.45394E-002, 1976.00000, 395.34362, 3.01142, 0.00000
 Zone Sizing Information, ALL_ST=GYMNASIUM/FITNESS CENTRE PLAYING AREA_FL=BUILDING STORY 1_SCH=B, Heating, 25643.96085, 33337.14910, 0.96939, 3.01142, WINDSOR INTL AP ANN HTG 99.6% CONDNS DB, 1/21 09:45:00, -15.50000, 9.92508E-004, 1976.00000, 395.34362, 3.01142, 0.00000
 Zone Sizing Information, ALL_ST=GYMNASIUM/FITNESS CENTRE PLAYING AREA_FL=BUILDING STORY 1_SCH=B 1, Cooling, 83928.05596, 92320.86155, 5.43688, 5.98057, WINDSOR INTL AP ANN CLG .4% CONDNS DB=>MWB, 7/21 09:00:00, 26.99500, 1.45394E-002, 1248.00000, 249.69071, 1.90195, 0.00000
 Zone Sizing Information, ALL_ST=GYMNASIUM/FITNESS CENTRE PLAYING AREA_FL=BUILDING STORY 1_SCH=B 1, Heating, 24273.41984, 31555.44580, 0.91210, 1.90195, WINDSOR INTL AP ANN HTG 99.6% CONDNS DB, 1/21 09:30:00, -15.50000, 9.92508E-004, 1248.00000, 249.69071, 1.90195, 0.00000
 Zone Sizing Information, ALL_ST=LIBRARY READING AREA_FL=BUILDING STORY 2_SCH=C, Cooling, 17364.86466, 19101.35113, 1.31375, 1.44513, WINDSOR INTL AP ANN CLG .4% CONDNS DB=>MWB, 7/21 10:15:00, 28.88325, 1.45394E-002, 840.00000, 42.01526, 0.72542, 0.00000
 Zone Sizing Information, ALL_ST=LIBRARY READING AREA_FL=BUILDING STORY 2_SCH=C, Heating, 12544.24263, 16307.51542, 0.48865, 0.72542, WINDSOR INTL AP ANN HTG 99.6% CONDNS DB, 1/21 09:00:00, -15.50000, 9.92508E-004, 840.00000, 42.01526, 0.72542, 0.00000
 Zone Sizing Information, ALL_ST=LOBBY - OTHER_FL=BUILDING STORY 1_SCH=C, Cooling, 2451.62482, 2696.78730, 0.18553, 0.86411, WINDSOR INTL AP ANN CLG .4% CONDNS DB=>MWB, 7/21 17:00:00, 30.72600, 1.45394E-002, 210.00000, 21.00763, 0.86411, 0.00000
 Zone Sizing Information, ALL_ST=LOBBY - OTHER_FL=BUILDING STORY 1_SCH=C, Heating, 2635.28174, 3425.86627, 0.10250, 0.86411, WINDSOR INTL AP ANN HTG 99.6% CONDNS DB, 1/21 09:00:00, -15.50000, 9.92508E-004, 210.00000, 21.00763, 0.86411, 0.00000
 Zone Sizing Information, ALL_ST=LOBBY - OTHER_FL=BUILDING STORY 2_SCH=C, Cooling, 3604.46643, 3964.91307, 0.27277, 0.86411, WINDSOR INTL AP ANN CLG .4% CONDNS DB=>MWB, 7/21 14:30:00, 32.00000, 1.45394E-002, 210.00000, 21.00763, 0.86411, 0.00000
 Zone Sizing Information, ALL_ST=LOBBY - OTHER_FL=BUILDING STORY 2_SCH=C, Heating, 3525.51405, 4583.16827, 0.13758, 0.86411, WINDSOR INTL AP ANN HTG 99.6% CONDNS DB, 1/21 09:00:00, -15.50000, 9.92508E-004, 210.00000, 21.00763, 0.86411, 0.00000
 Zone Sizing Information, ALL_ST=OFFICE ENCLOSED <= 25 M2_FL=BUILDING STORY 1_SCH=A, Cooling, 7695.00654, 8464.50720, 0.58221, 0.64043, WINDSOR INTL AP ANN CLG .4% CONDNS DB=>MWB, 7/21 10:00:00, 28.54200, 1.45394E-002, 532.00000, 26.60967, 0.22431, 0.00000
 Zone Sizing Information, ALL_ST=OFFICE ENCLOSED <= 25 M2_FL=BUILDING STORY 1_SCH=A, Heating, 7251.12373, 9426.46085, 0.28235, 0.36706, WINDSOR INTL AP ANN HTG 99.6% CONDNS DB, 1/21 08:00:00, -15.50000, 9.92508E-004, 532.00000, 26.60967, 0.22431, 0.00000
 Zone Sizing Information, ALL_ST=OFFICE ENCLOSED <= 25 M2_FL=BUILDING STORY 2_SCH=A, Cooling, 10997.61416, 12097.37557, 0.83217, 0.91539, WINDSOR INTL AP ANN CLG .4% CONDNS DB=>MWB, 7/21 10:15:00, 28.88325, 1.45394E-002, 532.00000, 26.60967, 0.22431, 0.00000
 Zone Sizing Information, ALL_ST=OFFICE ENCLOSED <= 25 M2_FL=BUILDING STORY 2_SCH=A, Heating, 9614.15949, 12498.40734, 0.37550, 0.48815, WINDSOR INTL AP ANN HTG 99.6% CONDNS DB, 1/21 08:00:00, -15.50000, 9.92508E-004, 532.00000, 26.60967, 0.22431, 0.00000
 Zone Sizing Information, WET_ST=WASHROOM - OTHER-SCH-D_FL=BUILDING STORY 1_SCHD, Cooling, 1825.58064, 2008.13871, 0.13812, 0.15193, WINDSOR INTL AP ANN CLG .4% CONDNS DB=>MWB, 7/21 16:00:00, 31.45400, 1.45394E-002, 210.00000, 7.00254, 6.40080E-002, 0.00000
 Zone Sizing Information, WET_ST=WASHROOM - OTHER-SCH-D_FL=BUILDING STORY 1_SCHD, Heating, 3192.08203, 4149.70664, 0.12448, 0.16183, WINDSOR INTL AP ANN HTG 99.6% CONDNS DB, 1/21 09:00:00, -15.50000, 9.92508E-004, 210.00000, 7.00254, 6.40080E-002, 0.00000
 Zone Sizing Information, WET_ST=WASHROOM - OTHER-SCH-D_FL=BUILDING STORY 2_SCHD, Cooling, 3044.76224, 3349.23846, 0.23037, 0.25341, WINDSOR INTL AP ANN CLG .4% CONDNS DB=>MWB, 7/21 14:15:00, 32.00000, 1.45394E-002, 210.00000, 7.00254, 6.40080E-002, 0.00000
 Zone Sizing Information, WET_ST=WASHROOM - OTHER-SCH-D_FL=BUILDING STORY 2_SCHD, Heating, 4110.47238, 5343.61409, 0.16069, 0.20890, WINDSOR INTL AP ANN HTG 99.6% CONDNS DB, 1/21 09:00:00, -15.50000, 9.92508E-004, 210.00000, 7.00254, 6.40080E-002, 0.00000
 Zone Sizing Information, WILD_ST=CORRIDOR/TRANSITION AREA OTHER-SCH-D_FL=BUILDING STORY 1_SCH=D, Cooling, 8949.55411, 9844.50952, 0.67703, 0.74474, WINDSOR INTL AP ANN CLG .4% CONDNS DB=>MWB, 7/21 17:30:00, 30.27100, 1.45394E-002, 1140.00000, 11.40414, 0.34747, 0.00000
 Zone Sizing Information, WILD_ST=CORRIDOR/TRANSITION AREA OTHER-SCH-D_FL=BUILDING STORY 1_SCH=D, Heating, 12172.63699, 15824.42808, 0.47186, 0.61341, WINDSOR INTL AP ANN HTG 99.6% CONDNS DB, 1/21 09:00:00, -15.50000, 9.92508E-004, 1140.00000, 11.40414, 0.34747, 0.00000
[...]
 DX Cooling Coil Standard Rating Information, Coil:Cooling:DX:SingleSpeed, COIL COOLING DX SINGLE SPEED 18 47KBTU/HR 14.0SEER, 9091.2, 3.31, 11.30, 11.94, 11.53
 Component Sizing Information, Coil:Heating:Fuel, COIL HEATING GAS 18, Design Size Nominal Capacity [W], 22543.44820
 Component Sizing Information, Fan:VariableVolume, FAN VARIABLE VOLUME 3, Design Size Maximum Flow Rate [m3/s], 0.37797
 Component Sizing Information, HeatExchanger:AirToAir:SensibleAndLatent, SYS_3_PSZ ALL_ST=GYMNASIUM/FITNESS CENTRE PLAYING AREA_FL=BUILDING STORY 1_SCH=B ERV, Design Size Nominal Supply Air Flow Rate [m3/s], 3.01142
 Component Sizing Information, Coil:Cooling:DX:SingleSpeed, COIL COOLING DX SINGLE SPEED 15 488KBTU/HR 8.21EER, Design Size Rated Air Flow Rate [m3/s], 3.30451
 Component Sizing Information, Coil:Cooling:DX:SingleSpeed, COIL COOLING DX SINGLE SPEED 15 488KBTU/HR 8.21EER, Design Size Gross Rated Total Cooling Capacity [W], 82058.84708
 Component Sizing Information, Coil:Cooling:DX:SingleSpeed, COIL COOLING DX SINGLE SPEED 15 488KBTU/HR 8.21EER, Design Size Gross Rated Sensible Heat Ratio, 0.69808
 DX Cooling Coil Standard Rating Information, Coil:Cooling:DX:SingleSpeed, COIL COOLING DX SINGLE SPEED 15 488KBTU/HR 8.21EER, 79483.6, 2.73, 9.32, 9.86, 9.66
 Component Sizing Information, Coil:Heating:Fuel, COIL HEATING GAS 15, Design Size Nominal Capacity [W], 215923.63984
 Component Sizing Information, Fan:VariableVolume, FAN VARIABLE VOLUME 5, Design Size Maximum Flow Rate [m3/s], 3.30451
 Component Sizing Information, HeatExchanger:AirToAir:SensibleAndLatent, SYS_3_PSZ ALL_ST=GYMNASIUM/FITNESS CENTRE PLAYING AREA_FL=BUILDING STORY 1_SCH=B 1 ERV, Design Size Nominal Supply Air Flow Rate [m3/s], 1.90195
 Component Sizing Information, Coil:Cooling:DX:SingleSpeed, COIL COOLING DX SINGLE SPEED 17 553KBTU/HR 8.21EER, Design Size Rated Air Flow Rate [m3/s], 5.98057
 Component Sizing Information, Coil:Cooling:DX:SingleSpeed, COIL COOLING DX SINGLE SPEED 17 553KBTU/HR 8.21EER, Design Size Gross Rated Total Cooling Capacity [W], 124419.01035
 Component Sizing Information, Coil:Cooling:DX:SingleSpeed, COIL COOLING DX SINGLE SPEED 17 553KBTU/HR 8.21EER, Design Size Gross Rated Sensible Heat Ratio, 0.75754
 DX Cooling Coil Standard Rating Information, Coil:Cooling:DX:SingleSpeed, COIL COOLING DX SINGLE SPEED 17 553KBTU/HR 8.21EER, 119764.0, 2.70, 9.21, 9.74, 9.42
 Component Sizing Information, Coil:Heating:Fuel, COIL HEATING GAS 17, Design Size Nominal Capacity [W], 238164.08045
 Component Sizing Information, Fan:VariableVolume, FAN VARIABLE VOLUME 4, Design Size Maximum Flow Rate [m3/s], 5.98057
 Component Sizing Information, HeatExchanger:AirToAir:SensibleAndLatent, SYS_3_PSZ ALL_ST=LIBRARY READING AREA_FL=BUILDING STORY 2_SCH=C ERV, Design Size Nominal Supply Air Flow Rate [m3/s], 0.72542
 Component Sizing Information, Coil:Cooling:DX:SingleSpeed, COIL COOLING DX SINGLE SPEED 13 179KBTU/HR 9.08EER, Design Size Rated Air Flow Rate [m3/s], 1.44513
 Component Sizing Information, Coil:Cooling:DX:SingleSpeed, COIL COOLING DX SINGLE SPEED 13 179KBTU/HR 9.08EER, Design Size Gross Rated Total Cooling Capacity [W], 34975.56832
 Component Sizing Information, Coil:Cooling:DX:SingleSpeed, COIL COOLING DX SINGLE SPEED 13 179KBTU/HR 9.08EER, Design Size Gross Rated Sensible Heat Ratio, 0.70646
 DX Cooling Coil Standard Rating Information, Coil:Cooling:DX:SingleSpeed, COIL COOLING DX SINGLE SPEED 13 179KBTU/HR 9.08EER, 33849.6, 2.81, 9.58, 10.13, 9.89
 Component Sizing Information, Coil:Heating:Fuel, COIL HEATING GAS 13, Design Size Nominal Capacity [W], 68159.88977
 Component Sizing Information, Fan:VariableVolume, FAN VARIABLE VOLUME 8, Design Size Maximum Flow Rate [m3/s], 1.44513
 Component Sizing Information, HeatExchanger:AirToAir:SensibleAndLatent, SYS_3_PSZ ALL_ST=LOBBY - OTHER_FL=BUILDING STORY 1_SCH=C ERV, Design Size Nominal Supply Air Flow Rate [m3/s], 0.86411
 Component Sizing Information, Coil:Cooling:DX:SingleSpeed, COIL COOLING DX SINGLE SPEED 3 73KBTU/HR 9.26EER, Design Size Rated Air Flow Rate [m3/s], 0.86411
 Component Sizing Information, Coil:Cooling:DX:SingleSpeed, COIL COOLING DX SINGLE SPEED 3 73KBTU/HR 9.26EER, Design Size Gross Rated Total Cooling Capacity [W], 21457.85945
 Component Sizing Information, Coil:Cooling:DX:SingleSpeed, COIL COOLING DX SINGLE SPEED 3 73KBTU/HR 9.26EER, Design Size Gross Rated Sensible Heat Ratio, 0.69808
 DX Cooling Coil Standard Rating Information, Coil:Cooling:DX:SingleSpeed, COIL COOLING DX SINGLE SPEED 3 73KBTU/HR 9.26EER, 20784.4, 2.81, 9.57, 10.13, 9.91
 Component Sizing Information, Coil:Heating:Fuel, COIL HEATING GAS 3, Design Size Nominal Capacity [W], 59811.28877
 Component Sizing Information, Fan:VariableVolume, FAN VARIABLE VOLUME 14, Design Size Maximum Flow Rate [m3/s], 0.86411
 Component Sizing Information, HeatExchanger:AirToAir:SensibleAndLatent, SYS_3_PSZ ALL_ST=LOBBY - OTHER_FL=BUILDING STORY 2_SCH=C ERV, Design Size Nominal Supply Air Flow Rate [m3/s], 0.86411
 Component Sizing Information, Coil:Cooling:DX:SingleSpeed, COIL COOLING DX SINGLE SPEED 4 73KBTU/HR 9.26EER, Design Size Rated Air Flow Rate [m3/s], 0.86411
 Component Sizing Information, Coil:Cooling:DX:SingleSpeed, COIL COOLING DX SINGLE SPEED 4 73KBTU/HR 9.26EER, Design Size Gross Rated Total Cooling Capacity [W], 21457.85945
 Component Sizing Information, Coil:Cooling:DX:SingleSpeed, COIL COOLING DX SINGLE SPEED 4 73KBTU/HR 9.26EER, Design Size Gross Rated Sensible Heat Ratio, 0.69808
 DX Cooling Coil Standard Rating Information, Coil:Cooling:DX:SingleSpeed, COIL COOLING DX SINGLE SPEED 4 73KBTU/HR 9.26EER, 20784.4, 2.81, 9.57, 10.13, 9.91
 Component Sizing Information, Coil:Heating:Fuel, COIL HEATING GAS 4, Design Size Nominal Capacity [W], 59811.28877
 Component Sizing Information, Fan:VariableVolume, FAN VARIABLE VOLUME 15, Design Size Maximum Flow Rate [m3/s], 0.86411
 Component Sizing Information, HeatExchanger:AirToAir:SensibleAndLatent, SYS_3_PSZ ALL_ST=OFFICE ENCLOSED <= 25 M2_FL=BUILDING STORY 1_SCH=A ERV, Design Size Nominal Supply Air Flow Rate [m3/s], 0.22431
 Component Sizing Information, Coil:Cooling:DX:SingleSpeed, COIL COOLING DX SINGLE SPEED 14 88KBTU/HR 9.26EER, Design Size Rated Air Flow Rate [m3/s], 0.64043
 Component Sizing Information, Coil:Cooling:DX:SingleSpeed, COIL COOLING DX SINGLE SPEED 14 88KBTU/HR 9.26EER, Design Size Gross Rated Total Cooling Capacity [W], 14193.00135
 Component Sizing Information, Coil:Cooling:DX:SingleSpeed, COIL COOLING DX SINGLE SPEED 14 88KBTU/HR 9.26EER, Design Size Gross Rated Sensible Heat Ratio, 0.73462
 DX Cooling Coil Standard Rating Information, Coil:Cooling:DX:SingleSpeed, COIL COOLING DX SINGLE SPEED 14 88KBTU/HR 9.26EER, 13694.3, 2.77, 9.46, 10.00, 9.71
 Component Sizing Information, Coil:Heating:Fuel, COIL HEATING GAS 14, Design Size Nominal Capacity [W], 25900.89008
 Component Sizing Information, Fan:VariableVolume, FAN VARIABLE VOLUME 7, Design Size Maximum Flow Rate [m3/s], 0.64043
 Component Sizing Information, HeatExchanger:AirToAir:SensibleAndLatent, SYS_3_PSZ ALL_ST=OFFICE ENCLOSED <= 25 M2_FL=BUILDING STORY 2_SCH=A ERV, Design Size Nominal Supply Air Flow Rate [m3/s], 0.22431
 Component Sizing Information, Coil:Cooling:DX:SingleSpeed, COIL COOLING DX SINGLE SPEED 19 123KBTU/HR 9.26EER, Design Size Rated Air Flow Rate [m3/s], 0.91539
 Component Sizing Information, Coil:Cooling:DX:SingleSpeed, COIL COOLING DX SINGLE SPEED 19 123KBTU/HR 9.26EER, Design Size Gross Rated Total Cooling Capacity [W], 18790.32557
 Component Sizing Information, Coil:Cooling:DX:SingleSpeed, COIL COOLING DX SINGLE SPEED 19 123KBTU/HR 9.26EER, Design Size Gross Rated Sensible Heat Ratio, 0.76248
 DX Cooling Coil Standard Rating Information, Coil:Cooling:DX:SingleSpeed, COIL COOLING DX SINGLE SPEED 19 123KBTU/HR 9.26EER, 18077.9, 2.76, 9.43, 9.96, 9.61
 Component Sizing Information, Coil:Heating:Fuel, COIL HEATING GAS 19, Design Size Nominal Capacity [W], 32760.68754
 Component Sizing Information, Fan:VariableVolume, FAN VARIABLE VOLUME 1, Design Size Maximum Flow Rate [m3/s], 0.91539
 Component Sizing Information, HeatExchanger:AirToAir:SensibleAndLatent, SYS_4_PSZ_WET_ST=WASHROOM - OTHER-SCH-D_FL=BUILDING STORY 1_SCHD ERV, Design Size Nominal Supply Air Flow Rate [m3/s], 0.12802
 Component Sizing Information, Coil:Cooling:DX:SingleSpeed, COIL COOLING DX SINGLE SPEED 1 56KBTU/HR 14.0SEER, Design Size Rated Air Flow Rate [m3/s], 0.41523
 Component Sizing Information, Coil:Cooling:DX:SingleSpeed, COIL COOLING DX SINGLE SPEED 1 56KBTU/HR 14.0SEER, Design Size Gross Rated Total Cooling Capacity [W], 9613.03909
 Component Sizing Information, Coil:Cooling:DX:SingleSpeed, COIL COOLING DX SINGLE SPEED 1 56KBTU/HR 14.0SEER, Design Size Gross Rated Sensible Heat Ratio, 0.71988
 DX Cooling Coil Standard Rating Information, Coil:Cooling:DX:SingleSpeed, COIL COOLING DX SINGLE SPEED 1 56KBTU/HR 14.0SEER, 9289.6, 3.28, 11.19, 11.81, 11.35
 Component Sizing Information, Coil:Heating:Fuel, COIL HEATING GAS 1, Design Size Nominal Capacity [W], 16023.34284
 Component Sizing Information, Fan:VariableVolume, FAN VARIABLE VOLUME 13, Design Size Maximum Flow Rate [m3/s], 0.41523
 Component Sizing Information, HeatExchanger:AirToAir:SensibleAndLatent, SYS_4_PSZ_WILD_ST=CORRIDOR/TRANSITION AREA OTHER-SCH-D_FL=BUILDING STORY 2_SCH=D ERV, Design Size Nominal Supply Air Flow Rate [m3/s], 1.48864
 Component Sizing Information, Coil:Cooling:DX:SingleSpeed, COIL COOLING DX SINGLE SPEED 2 574KBTU/HR 8.21EER, Design Size Rated Air Flow Rate [m3/s], 4.20285
 Component Sizing Information, Coil:Cooling:DX:SingleSpeed, COIL COOLING DX SINGLE SPEED 2 574KBTU/HR 8.21EER, Design Size Gross Rated Total Cooling Capacity [W], 96817.13515
 Component Sizing Information, Coil:Cooling:DX:SingleSpeed, COIL COOLING DX SINGLE SPEED 2 574KBTU/HR 8.21EER, Design Size Gross Rated Sensible Heat Ratio, 0.72119
 DX Cooling Coil Standard Rating Information, Coil:Cooling:DX:SingleSpeed, COIL COOLING DX SINGLE SPEED 2 574KBTU/HR 8.21EER, 93543.6, 2.75, 9.38, 9.92, 9.66
 Component Sizing Information, Coil:Heating:Fuel, COIL HEATING GAS 2, Design Size Nominal Capacity [W], 170724.96656
 Component Sizing Information, Fan:VariableVolume, FAN VARIABLE VOLUME 10, Design Size Maximum Flow Rate [m3/s], 4.20285
 Component Sizing Information, Coil:WaterHeating:AirToWaterHeatPump:Pumped, COIL WATER HEATING AIR TO WATER HEAT PUMP 1, Design Size Rated Evaporator Air Flow Rate [m3/s], 22.35169
 Component Sizing Information, Coil:WaterHeating:AirToWaterHeatPump:Pumped, COIL WATER HEATING AIR TO WATER HEAT PUMP 1, Design Size Rated Condenser Water Flow Rate [m3/s], 1.99190E-002
 Component Sizing Information, Fan:OnOff, FAN ON OFF 1, Design Size Maximum Flow Rate [m3/s], 22.35169
Heat Pump Water Heater Information,WaterHeater:HeatPump:PumpedCondenser,536GAL NATURALGAS WATER HEATER - 1515KBTU/HR 0.802 THERM EFF ASHPWH,2.0282,361106.7,0.996,0.6652,283128
 Component Sizing Information, WaterHeater:HeatPump:PumpedCondenser, 536GAL NATURALGAS WATER HEATER - 1515KBTU/HR 0.802 THERM EFF ASHPWH, Condenser water flow rate [m3/s], 1.99190E-002
 Component Sizing Information, WaterHeater:HeatPump:PumpedCondenser, 536GAL NATURALGAS WATER HEATER - 1515KBTU/HR 0.802 THERM EFF ASHPWH, Evaporator air flow rate [m3/s], 22.35169
 Component Sizing Information, PlantLoop, HOT WATER LOOP, Maximum Loop Flow Rate [m3/s], 6.07698E-003
 Component Sizing Information, PlantLoop, HOT WATER LOOP, Plant Loop Volume [m3], 0.72924
 Component Sizing Information, Pump:VariableSpeed, PUMP VARIABLE SPEED 1, Design Flow Rate [m3/s], 6.07698E-003
 Component Sizing Information, Pump:VariableSpeed, PUMP VARIABLE SPEED 1, Design Power Consumption [W], 1828.92759
 Component Sizing Information, Boiler:HotWater, PRIMARY BOILER 2233KBTU/HR 0.83 THERMAL EFF, Design Size Nominal Capacity [W], 408448.00550
 Component Sizing Information, Boiler:HotWater, PRIMARY BOILER 2233KBTU/HR 0.83 THERMAL EFF, User-Specified Nominal Capacity [W], 654346.58339
 Component Sizing Information, Boiler:HotWater, PRIMARY BOILER 2233KBTU/HR 0.83 THERMAL EFF, Design Size Design Water Flow Rate [m3/s], 6.07698E-003
 Component Sizing Information, Boiler:HotWater, SECONDARY BOILER 0KBTU/HR 0.85 AFUE, Design Size Nominal Capacity [W], 408448.00550
 Component Sizing Information, Boiler:HotWater, SECONDARY BOILER 0KBTU/HR 0.85 AFUE, User-Specified Nominal Capacity [W], 1.00000E-003
 Component Sizing Information, Boiler:HotWater, SECONDARY BOILER 0KBTU/HR 0.85 AFUE, Design Size Design Water Flow Rate [m3/s], 6.07698E-003
 Component Sizing Information, PlantLoop, MAIN SERVICE WATER LOOP, Maximum Loop Flow Rate [m3/s], 7.40089E-004
 Component Sizing Information, PlantLoop, MAIN SERVICE WATER LOOP, Plant Loop Volume [m3], 8.88106E-002
 Component Sizing Information, Pump:ConstantSpeed, SERVICE WATER LOOP PUMP, Design Flow Rate [m3/s], 7.40089E-004
 Component Sizing Information, Pump:ConstantSpeed, SERVICE WATER LOOP PUMP, Design Power Consumption [W], 1174.27378
 Component Sizing Information, WaterHeater:Mixed, 536GAL NATURALGAS WATER HEATER - 1515KBTU/HR 0.802 THERM EFF, Use Side Design Flow Rate [m3/s], 7.40089E-004
! <Environment>,Environment Name,Environment Type, Start Date, End Date, Start DayOfWeek, Duration {#days}, Source:Start DayOfWeek,  Use Daylight Saving, Use Holidays, Apply Weekend Holiday Rule,  Use Rain Values, Use Snow Values
! <Environment:Special Days>, Special Day Name, Special Day Type, Source, Start Date, Duration {#days}
! <Environment:Daylight Saving>, Daylight Saving Indicator, Source, Start Date, End Date
! <Environment:WarmupDays>, NumberofWarmupDays
Environment,RUN PERIOD 1,WeatherFileRunPeriod,01/01,12/31,Sunday,365,Use RunPeriod Specified Day,No,No,No,Yes,Yes
Environment:Daylight Saving,No,RunPeriod Object
Environment:WarmupDays,  8
! <Tabular Report>,Style,Unit Conversion
Tabular Report,HTML,None
! <Warmup Convergence Information>,Zone Name,Environment Type/Name,Average Warmup Temperature Difference {deltaC},Std Dev Warmup Temperature Difference {deltaC},Max Temperature Pass/Fail Convergence,Min Temperature Pass/Fail Convergence,Average Warmup Load Difference {W},Std Dev Warmup Load Difference {W},Heating Load Pass/Fail Convergence,Cooling Load Pass/Fail Convergence
 Warmup Convergence Information,ALL_ST=AUDIENCE SEATING AREA PERMANENT - AUDITORIUM_FL=BUILDING STORY 1_SCH=C,RunPeriod: RUN PERIOD 1,0.1270475107,0.2828365412,Pass,Pass,1.5273485176,7.3662176214,Pass,Pass
 Warmup Convergence Information,ALL_ST=CLASSROOM/LECTURE HALL/TRAINING ROOM OTHER_FL=BUILDING STORY 1_SCH=D,RunPeriod: RUN PERIOD 1,3.9399130803E-002,8.8430223770E-002,Pass,Pass,9.9131556650E-002,0.3202423749,Pass,Pass
 Warmup Convergence Information,ALL_ST=CLASSROOM/LECTURE HALL/TRAINING ROOM OTHER_FL=BUILDING STORY 1_SCH=D 1,RunPeriod: RUN PERIOD 1,1.0890517803E-004,1.1940443297E-004,Pass,Pass,2.7959253989E-002,2.7711640870E-002,Pass,Pass
 Warmup Convergence Information,ALL_ST=CLASSROOM/LECTURE HALL/TRAINING ROOM OTHER_FL=BUILDING STORY 1_SCH=D 2,RunPeriod: RUN PERIOD 1,2.3420990553E-002,4.5800996792E-002,Pass,Pass,6.8644486368E-002,0.1762687618,Pass,Pass
 Warmup Convergence Information,ALL_ST=CLASSROOM/LECTURE HALL/TRAINING ROOM OTHER_FL=BUILDING STORY 1_SCH=D 3,RunPeriod: RUN PERIOD 1,1.0866373127E-002,3.5669780213E-002,Pass,Pass,0.2479941526,2.0028960156,Pass,Pass
 Warmup Convergence Information,ALL_ST=CLASSROOM/LECTURE HALL/TRAINING ROOM OTHER_FL=BUILDING STORY 2_SCH=D,RunPeriod: RUN PERIOD 1,9.2603570264E-003,3.1890764852E-002,Pass,Pass,5.8176872760E-002,9.4332659228E-002,Pass,Pass
 Warmup Convergence Information,ALL_ST=CLASSROOM/LECTURE HALL/TRAINING ROOM OTHER_FL=BUILDING STORY 2_SCH=D 1,RunPeriod: RUN PERIOD 1,2.8862942751E-002,8.3113313486E-002,Pass,Pass,0.1450791956,0.4876251327,Pass,Pass
 Warmup Convergence Information,ALL_ST=CLASSROOM/LECTURE HALL/TRAINING ROOM OTHER_FL=BUILDING STORY 2_SCH=D 2,RunPeriod: RUN PERIOD 1,3.2498775015E-003,1.9119635885E-002,Pass,Pass,4.2782841079E-002,4.8059182716E-002,Pass,Pass
 Warmup Convergence Information,ALL_ST=CLASSROOM/LECTURE HALL/TRAINING ROOM OTHER_FL=BUILDING STORY 2_SCH=D 3,RunPeriod: RUN PERIOD 1,4.4659501688E-002,0.1222811299,Pass,Pass,7.9156181004E-002,0.1631625377,Pass,Pass
 Warmup Convergence Information,ALL_ST=CONFERENCE/MEETING/MULTI-PURPOSE ROOM_FL=BUILDING STORY 1_SCH=C,RunPeriod: RUN PERIOD 1,0.1061771416,0.1188305065,Pass,Pass,1.0679071185,4.1292976938,Pass,Pass
 Warmup Convergence Information,ALL_ST=FOOD PREPARATION AREA_FL=BUILDING STORY 1_SCH=B,RunPeriod: RUN PERIOD 1,8.4219027280E-002,0.1393817223,Pass,Pass,3.2705436318,17.4879295493,Pass,Pass
 Warmup Convergence Information,ALL_ST=GYMNASIUM/FITNESS CENTRE PLAYING AREA_FL=BUILDING STORY 1_SCH=B,RunPeriod: RUN PERIOD 1,0.1595733664,0.2203641045,Pass,Pass,6.9707005260,38.1158147032,Pass,Pass
 Warmup Convergence Information,ALL_ST=GYMNASIUM/FITNESS CENTRE PLAYING AREA_FL=BUILDING STORY 1_SCH=B 1,RunPeriod: RUN PERIOD 1,0.1625812798,0.2322993511,Pass,Pass,1.8843790749,7.7902955406,Pass,Pass
 Warmup Convergence Information,ALL_ST=LIBRARY READING AREA_FL=BUILDING STORY 2_SCH=C,RunPeriod: RUN PERIOD 1,0.1237519670,0.1911911214,Pass,Pass,1.0768114456,4.7439631946,Pass,Pass
 Warmup Convergence Information,ALL_ST=LOBBY - OTHER_FL=BUILDING STORY 1_SCH=C,RunPeriod: RUN PERIOD 1,8.2481848124E-002,0.2081464466,Pass,Pass,0.3633168460,0.9541297229,Pass,Pass
 Warmup Convergence Information,ALL_ST=LOBBY - OTHER_FL=BUILDING STORY 2_SCH=C,RunPeriod: RUN PERIOD 1,0.1141452868,0.2897178429,Pass,Pass,1.0515245538,6.9221466255,Pass,Pass
 Warmup Convergence Information,ALL_ST=OFFICE ENCLOSED <= 25 M2_FL=BUILDING STORY 1_SCH=A,RunPeriod: RUN PERIOD 1,4.3825358985E-002,3.9985689554E-002,Pass,Pass,0.0000000000,0.0000000000,Pass,Pass
 Warmup Convergence Information,ALL_ST=OFFICE ENCLOSED <= 25 M2_FL=BUILDING STORY 2_SCH=A,RunPeriod: RUN PERIOD 1,5.9550869659E-002,7.6954803995E-002,Pass,Pass,9.1095993331E-002,0.2103598915,Pass,Pass
 Warmup Convergence Information,WET_ST=WASHROOM - OTHER-SCH-D_FL=BUILDING STORY 1_SCHD,RunPeriod: RUN PERIOD 1,5.3614101895E-003,9.1881573343E-003,Pass,Pass,5.2223405104E-002,0.1100408591,Pass,Pass
 Warmup Convergence Information,WET_ST=WASHROOM - OTHER-SCH-D_FL=BUILDING STORY 2_SCHD,RunPeriod: RUN PERIOD 1,3.1547612922E-004,8.5003938913E-004,Pass,Pass,0.1388614847,0.4458633597,Pass,Pass
 Warmup Convergence Information,WILD_ST=CORRIDOR/TRANSITION AREA OTHER-SCH-D_FL=BUILDING STORY 1_SCH=D,RunPeriod: RUN PERIOD 1,1.4553453609E-002,9.4481604550E-003,Pass,Pass,0.0000000000,0.0000000000,Pass,Pass
 Warmup Convergence Information,WILD_ST=CORRIDOR/TRANSITION AREA OTHER-SCH-D_FL=BUILDING STORY 1_SCH=D 1,RunPeriod: RUN PERIOD 1,9.1280849113E-003,1.3871623053E-002,Pass,Pass,5.5340711922E-002,0.1055339937,Pass,Pass
 Warmup Convergence Information,WILD_ST=CORRIDOR/TRANSITION AREA OTHER-SCH-D_FL=BUILDING STORY 2_SCH=D,RunPeriod: RUN PERIOD 1,1.4894577016E-002,3.1561049553E-002,Pass,Pass,8.5795655936E-002,0.3134285949,Pass,Pass
 Warmup Convergence Information,WILD_ST=CORRIDOR/TRANSITION AREA OTHER-SCH-D_FL=BUILDING STORY 2_SCH=D 1,RunPeriod: RUN PERIOD 1,2.4433610709E-003,8.9695921434E-003,Pass,Pass,0.1047356567,0.4774199130,Pass,Pass
 Warmup Convergence Information,WILD_ST=ELECTRICAL/MECHANICAL ROOM-SCH-D_FL=BUILDING STORY 1_SCH=D,RunPeriod: RUN PERIOD 1,3.2016197083E-002,1.9035379344E-002,Pass,Pass,0.0000000000,0.0000000000,Pass,Pass
 Warmup Convergence Information,WILD_ST=ELECTRICAL/MECHANICAL ROOM-SCH-D_FL=BUILDING STORY 2_SCH=D,RunPeriod: RUN PERIOD 1,5.4490973661E-002,4.1792440619E-002,Pass,Pass,2.4568652060E-002,0.1323023398,Pass,Pass
! <Program Control Information:Threads/Parallel Sims>, Threading Supported,Maximum Number of Threads, Env Set Threads (OMP_NUM_THREADS), EP Env Set Threads (EP_OMP_NUM_THREADS), IDF Set Threads, Number of Threads Used (Interior Radiant Exchange), Number Nominal Surfaces, Number Parallel Sims
Program Control:Threads/Parallel Sims, No,1, N/A, N/A, N/A, N/A, N/A, N/A
End of Data
