Program Version,EnergyPlus, Version 8.9.0-eba93e8e1b, YMD=2019.08.13 20:52
! This file shows details about the branches, nodes, and other
! elements of the flow connections.
! This file is intended for use in "debugging" potential problems
! that may also be detected by the program, but may be more easily
! identified by "eye".
! This file is also intended to support software which draws a
! schematic diagram of the HVAC system.
! ===============================================================
! #Nodes,<Number of Unique Nodes>
 #Nodes,638
! <Node>,<NodeNumber>,<Node Name>,<Node Fluid Type>,<# Times Node Referenced After Definition>
 Node,1,NODE 210,Air,3
 Node,2,NODE 504,Air,3
 Node,3,NODE 503,Air,3
 Node,4,NODE 119,Air,3
 Node,5,NODE 534,Air,3
 Node,6,NODE 533,Air,3
 Node,7,NODE 171,Air,3
 Node,8,NODE 520,Air,3
 Node,9,NODE 519,Air,3
 Node,10,NODE 184,Air,3
 Node,11,NODE 538,Air,3
 Node,12,NODE 537,Air,3
 Node,13,NODE 262,Air,3
 Node,14,NODE 498,Air,3
 Node,15,NODE 497,Air,3
 Node,16,NODE 132,Air,3
 Node,17,NODE 536,Air,3
 Node,18,NODE 535,Air,3
 Node,19,NODE 145,Air,3
 Node,20,NODE 530,Air,3
 Node,21,NODE 529,Air,3
 Node,22,NODE 158,Air,3
 Node,23,NODE 518,Air,3
 Node,24,NODE 517,Air,3
 Node,25,NODE 197,Air,3
 Node,26,NODE 532,Air,3
 Node,27,NODE 531,Air,3
 Node,28,NODE 314,Air,3
 Node,29,NODE 490,Air,3
 Node,30,NODE 489,Air,3
 Node,31,NODE 288,Air,3
 Node,32,NODE 492,Air,3
 Node,33,NODE 491,Air,3
 Node,34,NODE 249,Air,3
 Node,35,NODE 496,Air,3
 Node,36,NODE 495,Air,3
 Node,37,NODE 275,Air,3
 Node,38,NODE 494,Air,3
 Node,39,NODE 540,Air,2
 Node,40,NODE 493,Air,3
 Node,41,NODE 539,Air,2
 Node,42,NODE 223,Air,3
 Node,43,NODE 502,Air,3
 Node,44,NODE 501,Air,3
 Node,45,NODE 93,Air,3
 Node,46,NODE 526,Air,3
 Node,47,NODE 525,Air,3
 Node,48,NODE 106,Air,3
 Node,49,NODE 528,Air,3
 Node,50,NODE 527,Air,3
 Node,51,NODE 236,Air,3
 Node,52,NODE 500,Air,3
 Node,53,NODE 499,Air,3
 Node,54,NODE 301,Air,3
 Node,55,NODE 488,Air,3
 Node,56,NODE 487,Air,3
 Node,57,NODE 27,Air,3
 Node,58,NODE 522,Air,3
 Node,59,NODE 521,Air,3
 Node,60,NODE 39,Air,3
 Node,61,NODE 524,Air,3
 Node,62,NODE 523,Air,3
 Node,63,NODE 65,Air,3
 Node,64,NODE 512,Air,3
 Node,65,NODE 511,Air,3
 Node,66,NODE 71,Air,3
 Node,67,NODE 514,Air,3
 Node,68,NODE 513,Air,3
 Node,69,NODE 51,Air,3
 Node,70,NODE 516,Air,3
 Node,71,NODE 515,Air,3
 Node,72,NODE 77,Air,3
 Node,73,NODE 510,Air,3
 Node,74,NODE 509,Air,3
 Node,75,NODE 81,Air,3
 Node,76,NODE 508,Air,3
 Node,77,NODE 507,Air,3
 Node,78,NODE 85,Air,3
 Node,79,NODE 506,Air,3
 Node,80,NODE 505,Air,3
 Node,81,NODE 207,Air,10
 Node,82,NODE 208,Air,3
 Node,83,NODE 116,Air,10
 Node,84,NODE 117,Air,3
 Node,85,NODE 168,Air,10
 Node,86,NODE 169,Air,3
 Node,87,NODE 181,Air,10
 Node,88,NODE 182,Air,3
 Node,89,NODE 259,Air,10
 Node,90,NODE 260,Air,3
 Node,91,NODE 129,Air,10
 Node,92,NODE 130,Air,3
 Node,93,NODE 142,Air,10
 Node,94,NODE 143,Air,3
 Node,95,NODE 155,Air,10
 Node,96,NODE 156,Air,3
 Node,97,NODE 194,Air,10
 Node,98,NODE 195,Air,3
 Node,99,NODE 311,Air,10
 Node,100,NODE 312,Air,3
 Node,101,NODE 285,Air,10
 Node,102,NODE 286,Air,3
 Node,103,NODE 246,Air,10
 Node,104,NODE 247,Air,3
 Node,105,NODE 272,Air,10
 Node,106,NODE 273,Air,3
 Node,107,NODE 220,Air,10
 Node,108,NODE 221,Air,3
 Node,109,NODE 90,Air,10
 Node,110,NODE 91,Air,3
 Node,111,NODE 103,Air,10
 Node,112,NODE 104,Air,3
 Node,113,NODE 233,Air,10
 Node,114,NODE 234,Air,3
 Node,115,NODE 298,Air,10
 Node,116,NODE 299,Air,3
 Node,117,NODE 23,Air,10
 Node,118,NODE 24,Air,3
 Node,119,NODE 47,Air,10
 Node,120,NODE 48,Air,3
 Node,121,NODE 206,Air,4
 Node,122,NODE 215,Air,8
 Node,123,NODE 214,Air,6
 Node,124,NODE 457,Air,8
 Node,125,NODE 115,Air,4
 Node,126,NODE 124,Air,8
 Node,127,NODE 123,Air,6
 Node,128,NODE 481,Air,8
 Node,129,NODE 167,Air,4
 Node,130,NODE 176,Air,8
 Node,131,NODE 175,Air,6
 Node,132,NODE 468,Air,8
 Node,133,NODE 180,Air,4
 Node,134,NODE 189,Air,8
 Node,135,NODE 188,Air,6
 Node,136,NODE 485,Air,8
 Node,137,NODE 258,Air,4
 Node,138,NODE 267,Air,8
 Node,139,NODE 266,Air,6
 Node,140,NODE 451,Air,8
 Node,141,NODE 128,Air,4
 Node,142,NODE 137,Air,8
 Node,143,NODE 136,Air,6
 Node,144,NODE 483,Air,8
 Node,145,NODE 141,Air,4
 Node,146,NODE 150,Air,8
 Node,147,NODE 149,Air,6
 Node,148,NODE 477,Air,8
 Node,149,NODE 154,Air,4
 Node,150,NODE 163,Air,8
 Node,151,NODE 162,Air,6
 Node,152,NODE 466,Air,8
 Node,153,NODE 193,Air,4
 Node,154,NODE 202,Air,8
 Node,155,NODE 201,Air,6
 Node,156,NODE 479,Air,8
 Node,157,NODE 310,Air,4
 Node,158,NODE 319,Air,8
 Node,159,NODE 318,Air,6
 Node,160,NODE 443,Air,8
 Node,161,NODE 284,Air,4
 Node,162,NODE 293,Air,8
 Node,163,NODE 292,Air,6
 Node,164,NODE 445,Air,8
 Node,165,NODE 245,Air,4
 Node,166,NODE 254,Air,8
 Node,167,NODE 253,Air,6
 Node,168,NODE 449,Air,8
 Node,169,NODE 271,Air,4
 Node,170,NODE 280,Air,8
 Node,171,NODE 279,Air,6
 Node,172,NODE 447,Air,8
 Node,173,NODE 219,Air,4
 Node,174,NODE 228,Air,8
 Node,175,NODE 227,Air,6
 Node,176,NODE 455,Air,8
 Node,177,NODE 89,Air,4
 Node,178,NODE 98,Air,8
 Node,179,NODE 97,Air,6
 Node,180,NODE 473,Air,8
 Node,181,NODE 102,Air,4
 Node,182,NODE 111,Air,8
 Node,183,NODE 110,Air,6
 Node,184,NODE 475,Air,8
 Node,185,NODE 232,Air,4
 Node,186,NODE 241,Air,8
 Node,187,NODE 240,Air,6
 Node,188,NODE 453,Air,8
 Node,189,NODE 297,Air,4
 Node,190,NODE 306,Air,8
 Node,191,NODE 305,Air,6
 Node,192,NODE 401,Air,8
 Node,193,NODE 21,Air,4
 Node,194,NODE 35,Air,8
 Node,195,NODE 33,Air,6
 Node,196,NODE 470,Air,8
 Node,197,NODE 45,Air,4
 Node,198,NODE 59,Air,8
 Node,199,NODE 57,Air,6
 Node,200,NODE 459,Air,8
 Node,201,NODE 2,Water,2
 Node,202,NODE 11,Water,1
 Node,203,NODE 5,Water,1
 Node,204,NODE 12,Water,1
 Node,205,NODE 14,Water,1
 Node,206,NODE 15,Water,1
 Node,207,NODE 17,Water,1
 Node,208,NODE 18,Water,1
 Node,209,NODE 20,Water,1
 Node,210,NODE 3,Water,4
 Node,211,NODE 6,Water,2
 Node,212,HOT WATER LOOP DEMAND INLET PIPE NODE,Water,1
 Node,213,NODE 9,Water,1
 Node,214,NODE 38,Water,1
 Node,215,NODE 42,Water,1
 Node,216,NODE 44,Water,1
 Node,217,NODE 62,Water,1
 Node,218,NODE 63,Water,1
 Node,219,NODE 68,Water,1
 Node,220,NODE 69,Water,1
 Node,221,NODE 74,Water,1
 Node,222,NODE 75,Water,1
 Node,223,NODE 79,Water,1
 Node,224,NODE 80,Water,1
 Node,225,NODE 83,Water,1
 Node,226,NODE 84,Water,1
 Node,227,NODE 87,Water,1
 Node,228,NODE 88,Water,1
 Node,229,NODE 100,Water,1
 Node,230,NODE 101,Water,1
 Node,231,NODE 113,Water,1
 Node,232,NODE 114,Water,1
 Node,233,NODE 126,Water,1
 Node,234,NODE 127,Water,1
 Node,235,NODE 139,Water,1
 Node,236,NODE 140,Water,1
 Node,237,NODE 152,Water,1
 Node,238,NODE 153,Water,1
 Node,239,NODE 165,Water,1
 Node,240,NODE 166,Water,1
 Node,241,NODE 178,Water,1
 Node,242,NODE 179,Water,1
 Node,243,NODE 191,Water,1
 Node,244,NODE 192,Water,1
 Node,245,NODE 204,Water,1
 Node,246,NODE 205,Water,1
 Node,247,NODE 217,Water,1
 Node,248,NODE 218,Water,1
 Node,249,NODE 230,Water,1
 Node,250,NODE 231,Water,1
 Node,251,NODE 243,Water,1
 Node,252,NODE 244,Water,1
 Node,253,NODE 256,Water,1
 Node,254,NODE 257,Water,1
 Node,255,NODE 269,Water,1
 Node,256,NODE 270,Water,1
 Node,257,NODE 282,Water,1
 Node,258,NODE 283,Water,1
 Node,259,NODE 295,Water,1
 Node,260,NODE 296,Water,1
 Node,261,NODE 308,Water,1
 Node,262,NODE 309,Water,1
 Node,263,NODE 321,Water,1
 Node,264,NODE 322,Water,1
 Node,265,HOT WATER LOOP DEMAND BYPASS PIPE INLET NODE,Water,1
 Node,266,HOT WATER LOOP DEMAND BYPASS PIPE OUTLET NODE,Water,1
 Node,267,HOT WATER LOOP DEMAND OUTLET PIPE NODE,Water,1
 Node,268,NODE 8,Water,2
 Node,269,NODE 323,Water,2
 Node,270,NODE 329,Water,1
 Node,271,NODE 325,Water,2
 Node,272,NODE 330,Water,2
 Node,273,NODE 331,Water,1
 Node,274,NODE 332,Water,1
 Node,275,NODE 334,Water,1
 Node,276,NODE 324,Water,4
 Node,277,NODE 326,Water,2
 Node,278,NODE 335,Water,1
 Node,279,NODE 328,Water,1
 Node,280,NODE 333,Water,1
 Node,281,NODE 337,Water,1
 Node,282,NODE 338,Water,1
 Node,283,NODE 339,Water,1
 Node,284,NODE 340,Water,1
 Node,285,NODE 341,Water,1
 Node,286,NODE 342,Water,1
 Node,287,NODE 343,Water,1
 Node,288,NODE 344,Water,1
 Node,289,NODE 345,Water,1
 Node,290,NODE 346,Water,1
 Node,291,NODE 347,Water,1
 Node,292,NODE 348,Water,1
 Node,293,NODE 349,Water,1
 Node,294,NODE 350,Water,1
 Node,295,NODE 351,Water,1
 Node,296,NODE 352,Water,1
 Node,297,NODE 353,Water,1
 Node,298,NODE 354,Water,1
 Node,299,NODE 355,Water,1
 Node,300,NODE 356,Water,1
 Node,301,NODE 357,Water,1
 Node,302,NODE 358,Water,1
 Node,303,NODE 359,Water,1
 Node,304,NODE 360,Water,1
 Node,305,NODE 361,Water,1
 Node,306,NODE 362,Water,1
 Node,307,NODE 363,Water,1
 Node,308,NODE 364,Water,1
 Node,309,NODE 365,Water,1
 Node,310,NODE 366,Water,1
 Node,311,NODE 367,Water,1
 Node,312,NODE 368,Water,1
 Node,313,NODE 369,Water,1
 Node,314,NODE 370,Water,1
 Node,315,NODE 371,Water,1
 Node,316,NODE 372,Water,1
 Node,317,NODE 373,Water,1
 Node,318,NODE 374,Water,1
 Node,319,NODE 375,Water,1
 Node,320,NODE 376,Water,1
 Node,321,NODE 377,Water,1
 Node,322,NODE 378,Water,1
 Node,323,NODE 379,Water,1
 Node,324,NODE 380,Water,1
 Node,325,NODE 381,Water,1
 Node,326,NODE 382,Water,1
 Node,327,NODE 383,Water,1
 Node,328,NODE 384,Water,1
 Node,329,NODE 385,Water,1
 Node,330,NODE 386,Water,1
 Node,331,NODE 387,Water,1
 Node,332,NODE 388,Water,1
 Node,333,NODE 389,Water,1
 Node,334,NODE 390,Water,1
 Node,335,NODE 391,Water,1
 Node,336,NODE 392,Water,1
 Node,337,NODE 393,Water,1
 Node,338,NODE 394,Water,1
 Node,339,NODE 395,Water,1
 Node,340,NODE 396,Water,1
 Node,341,NODE 397,Water,1
 Node,342,NODE 398,Water,1
 Node,343,NODE 399,Water,1
 Node,344,NODE 400,Water,1
 Node,345,MAIN SERVICE WATER LOOP DEMAND BYPASS PIPE INLET NODE,Water,1
 Node,346,MAIN SERVICE WATER LOOP DEMAND BYPASS PIPE OUTLET NODE,Water,1
 Node,347,NODE 336,Water,1
 Node,348,NODE 327,Water,2
 Node,349,NODE 34,Air,0
 Node,350,NODE 216,Air,1
 Node,351,NODE 13,Air,0
 Node,352,NODE 125,Air,1
 Node,353,NODE 25,Air,0
 Node,354,NODE 177,Air,1
 Node,355,NODE 28,Air,0
 Node,356,NODE 190,Air,1
 Node,357,NODE 46,Air,0
 Node,358,NODE 268,Air,1
 Node,359,NODE 16,Air,0
 Node,360,NODE 138,Air,1
 Node,361,NODE 19,Air,0
 Node,362,NODE 151,Air,1
 Node,363,NODE 22,Air,0
 Node,364,NODE 164,Air,1
 Node,365,NODE 31,Air,0
 Node,366,NODE 203,Air,1
 Node,367,NODE 58,Air,0
 Node,368,NODE 320,Air,1
 Node,369,NODE 52,Air,0
 Node,370,NODE 294,Air,1
 Node,371,NODE 43,Air,0
 Node,372,NODE 255,Air,1
 Node,373,NODE 49,Air,0
 Node,374,NODE 281,Air,1
 Node,375,NODE 37,Air,0
 Node,376,NODE 229,Air,1
 Node,377,NODE 7,Air,0
 Node,378,NODE 99,Air,1
 Node,379,NODE 10,Air,0
 Node,380,NODE 112,Air,1
 Node,381,NODE 40,Air,0
 Node,382,NODE 242,Air,1
 Node,383,NODE 55,Air,0
 Node,384,NODE 307,Air,1
 Node,385,NODE 1,Air,0
 Node,386,NODE 36,Air,1
 Node,387,NODE 4,Air,0
 Node,388,NODE 41,Air,1
 Node,389,NODE 64,Air,0
 Node,390,NODE 66,Air,1
 Node,391,NODE 67,Air,0
 Node,392,NODE 72,Air,1
 Node,393,NODE 61,Air,0
 Node,394,NODE 60,Air,1
 Node,395,NODE 70,Air,0
 Node,396,NODE 78,Air,1
 Node,397,NODE 73,Air,0
 Node,398,NODE 82,Air,1
 Node,399,NODE 76,Air,0
 Node,400,NODE 86,Air,1
 Node,401,NODE 209,Air,2
 Node,402,NODE 118,Air,2
 Node,403,NODE 170,Air,2
 Node,404,NODE 183,Air,2
 Node,405,NODE 261,Air,2
 Node,406,NODE 131,Air,2
 Node,407,NODE 144,Air,2
 Node,408,NODE 157,Air,2
 Node,409,NODE 196,Air,2
 Node,410,NODE 313,Air,2
 Node,411,NODE 287,Air,2
 Node,412,NODE 248,Air,2
 Node,413,NODE 274,Air,2
 Node,414,NODE 222,Air,2
 Node,415,NODE 92,Air,2
 Node,416,NODE 105,Air,2
 Node,417,NODE 235,Air,2
 Node,418,NODE 300,Air,2
 Node,419,NODE 26,Air,2
 Node,420,NODE 50,Air,2
 Node,421,536GAL NATURALGAS WATER HEATER - 1515KBTU/HR 0.802 THERM EFF ASHPWH TANK OUTLET - CONDENSER INLET,Water,2
 Node,422,536GAL NATURALGAS WATER HEATER - 1515KBTU/HR 0.802 THERM EFF ASHPWH CONDENSER OUTLET - TANK INLET,Water,2
 Node,423,536GAL NATURALGAS WATER HEATER - 1515KBTU/HR 0.802 THERM EFF ASHPWH MIXER OUTLET - EVAP INLET,Air,1
 Node,424,536GAL NATURALGAS WATER HEATER - 1515KBTU/HR 0.802 THERM EFF ASHPWH EVAP OUTLET - FAN INLET,Air,1
 Node,425,ALL_ST=AUDIENCE SEATING AREA PERMANENT - AUDITORIUM_FL=BUILDING STORY 1_SCH=C ERV DOAS OA NODE,Air,2
 Node,426,ALL_ST=CLASSROOM/LECTURE HALL/TRAINING ROOM OTHER_FL=BUILDING STORY 1_SCH=D ERV DOAS OA NODE,Air,2
 Node,427,ALL_ST=CLASSROOM/LECTURE HALL/TRAINING ROOM OTHER_FL=BUILDING STORY 1_SCH=D 1 ERV DOAS OA NODE,Air,2
 Node,428,ALL_ST=CLASSROOM/LECTURE HALL/TRAINING ROOM OTHER_FL=BUILDING STORY 1_SCH=D 2 ERV DOAS OA NODE,Air,2
 Node,429,ALL_ST=CLASSROOM/LECTURE HALL/TRAINING ROOM OTHER_FL=BUILDING STORY 1_SCH=D 3 ERV DOAS OA NODE,Air,2
 Node,430,ALL_ST=CLASSROOM/LECTURE HALL/TRAINING ROOM OTHER_FL=BUILDING STORY 2_SCH=D ERV DOAS OA NODE,Air,2
 Node,431,ALL_ST=CLASSROOM/LECTURE HALL/TRAINING ROOM OTHER_FL=BUILDING STORY 2_SCH=D 1 ERV DOAS OA NODE,Air,2
 Node,432,ALL_ST=CLASSROOM/LECTURE HALL/TRAINING ROOM OTHER_FL=BUILDING STORY 2_SCH=D 2 ERV DOAS OA NODE,Air,2
 Node,433,ALL_ST=CLASSROOM/LECTURE HALL/TRAINING ROOM OTHER_FL=BUILDING STORY 2_SCH=D 3 ERV DOAS OA NODE,Air,2
 Node,434,ALL_ST=CONFERENCE/MEETING/MULTI-PURPOSE ROOM_FL=BUILDING STORY 1_SCH=C ERV DOAS OA NODE,Air,2
 Node,435,ALL_ST=FOOD PREPARATION AREA_FL=BUILDING STORY 1_SCH=B ERV DOAS OA NODE,Air,2
 Node,436,ALL_ST=GYMNASIUM/FITNESS CENTRE PLAYING AREA_FL=BUILDING STORY 1_SCH=B ERV DOAS OA NODE,Air,2
 Node,437,ALL_ST=GYMNASIUM/FITNESS CENTRE PLAYING AREA_FL=BUILDING STORY 1_SCH=B 1 ERV DOAS OA NODE,Air,2
 Node,438,ALL_ST=LIBRARY READING AREA_FL=BUILDING STORY 2_SCH=C ERV DOAS OA NODE,Air,2
 Node,439,ALL_ST=LOBBY - OTHER_FL=BUILDING STORY 1_SCH=C ERV DOAS OA NODE,Air,2
 Node,440,ALL_ST=LOBBY - OTHER_FL=BUILDING STORY 2_SCH=C ERV DOAS OA NODE,Air,2
 Node,441,ALL_ST=OFFICE ENCLOSED <= 25 M2_FL=BUILDING STORY 1_SCH=A ERV DOAS OA NODE,Air,2
 Node,442,ALL_ST=OFFICE ENCLOSED <= 25 M2_FL=BUILDING STORY 2_SCH=A ERV DOAS OA NODE,Air,2
 Node,443,WET_ST=WASHROOM - OTHER-SCH-D_FL=BUILDING STORY 1_SCHD ERV DOAS OA NODE,Air,2
 Node,444,WET_ST=WASHROOM - OTHER-SCH-D_FL=BUILDING STORY 2_SCHD ERV DOAS OA NODE,Air,2
 Node,445,WILD_ST=CORRIDOR/TRANSITION AREA OTHER-SCH-D_FL=BUILDING STORY 1_SCH=D ERV DOAS OA NODE,Air,2
 Node,446,WILD_ST=CORRIDOR/TRANSITION AREA OTHER-SCH-D_FL=BUILDING STORY 1_SCH=D 1 ERV DOAS OA NODE,Air,2
 Node,447,WILD_ST=CORRIDOR/TRANSITION AREA OTHER-SCH-D_FL=BUILDING STORY 2_SCH=D ERV DOAS OA NODE,Air,2
 Node,448,WILD_ST=CORRIDOR/TRANSITION AREA OTHER-SCH-D_FL=BUILDING STORY 2_SCH=D 1 ERV DOAS OA NODE,Air,2
 Node,449,WILD_ST=ELECTRICAL/MECHANICAL ROOM-SCH-D_FL=BUILDING STORY 1_SCH=D ERV DOAS OA NODE,Air,2
 Node,450,WILD_ST=ELECTRICAL/MECHANICAL ROOM-SCH-D_FL=BUILDING STORY 2_SCH=D ERV DOAS OA NODE,Air,2
 Node,451,NODE 211,Air,3
 Node,452,NODE 120,Air,3
 Node,453,NODE 172,Air,3
 Node,454,NODE 185,Air,3
 Node,455,NODE 263,Air,3
 Node,456,NODE 133,Air,3
 Node,457,NODE 146,Air,3
 Node,458,NODE 159,Air,3
 Node,459,NODE 198,Air,3
 Node,460,NODE 315,Air,3
 Node,461,NODE 289,Air,3
 Node,462,NODE 250,Air,3
 Node,463,NODE 276,Air,3
 Node,464,NODE 224,Air,3
 Node,465,NODE 94,Air,3
 Node,466,NODE 107,Air,3
 Node,467,NODE 237,Air,3
 Node,468,NODE 302,Air,3
 Node,469,NODE 29,Air,3
 Node,470,NODE 53,Air,3
 Node,471,MODEL OUTDOOR AIR NODE,Air,0
 Node,472,ALL_ST=AUDIENCE SEATING AREA PERMANENT - AUDITORIUM_FL=BUILDING STORY 1_SCH=C ERV DOAS SUPPLY FAN INLET NODE,Air,1
 Node,473,ALL_ST=AUDIENCE SEATING AREA PERMANENT - AUDITORIUM_FL=BUILDING STORY 1_SCH=C ERV DOAS EXHAUST FAN INLET NODE,Air,1
 Node,474,ALL_ST=AUDIENCE SEATING AREA PERMANENT - AUDITORIUM_FL=BUILDING STORY 1_SCH=C ERV DOAS EXHAUST FAN OUTLET NODE,Air,1
 Node,475,ALL_ST=CLASSROOM/LECTURE HALL/TRAINING ROOM OTHER_FL=BUILDING STORY 1_SCH=D ERV DOAS SUPPLY FAN INLET NODE,Air,1
 Node,476,ALL_ST=CLASSROOM/LECTURE HALL/TRAINING ROOM OTHER_FL=BUILDING STORY 1_SCH=D ERV DOAS EXHAUST FAN INLET NODE,Air,1
 Node,477,ALL_ST=CLASSROOM/LECTURE HALL/TRAINING ROOM OTHER_FL=BUILDING STORY 1_SCH=D ERV DOAS EXHAUST FAN OUTLET NODE,Air,1
 Node,478,ALL_ST=CLASSROOM/LECTURE HALL/TRAINING ROOM OTHER_FL=BUILDING STORY 1_SCH=D 1 ERV DOAS SUPPLY FAN INLET NODE,Air,1
 Node,479,ALL_ST=CLASSROOM/LECTURE HALL/TRAINING ROOM OTHER_FL=BUILDING STORY 1_SCH=D 1 ERV DOAS EXHAUST FAN INLET NODE,Air,1
 Node,480,ALL_ST=CLASSROOM/LECTURE HALL/TRAINING ROOM OTHER_FL=BUILDING STORY 1_SCH=D 1 ERV DOAS EXHAUST FAN OUTLET NODE,Air,1
 Node,481,ALL_ST=CLASSROOM/LECTURE HALL/TRAINING ROOM OTHER_FL=BUILDING STORY 1_SCH=D 2 ERV DOAS SUPPLY FAN INLET NODE,Air,1
 Node,482,ALL_ST=CLASSROOM/LECTURE HALL/TRAINING ROOM OTHER_FL=BUILDING STORY 1_SCH=D 2 ERV DOAS EXHAUST FAN INLET NODE,Air,1
 Node,483,ALL_ST=CLASSROOM/LECTURE HALL/TRAINING ROOM OTHER_FL=BUILDING STORY 1_SCH=D 2 ERV DOAS EXHAUST FAN OUTLET NODE,Air,1
 Node,484,ALL_ST=CLASSROOM/LECTURE HALL/TRAINING ROOM OTHER_FL=BUILDING STORY 1_SCH=D 3 ERV DOAS SUPPLY FAN INLET NODE,Air,1
 Node,485,ALL_ST=CLASSROOM/LECTURE HALL/TRAINING ROOM OTHER_FL=BUILDING STORY 1_SCH=D 3 ERV DOAS EXHAUST FAN INLET NODE,Air,1
 Node,486,ALL_ST=CLASSROOM/LECTURE HALL/TRAINING ROOM OTHER_FL=BUILDING STORY 1_SCH=D 3 ERV DOAS EXHAUST FAN OUTLET NODE,Air,1
 Node,487,ALL_ST=CLASSROOM/LECTURE HALL/TRAINING ROOM OTHER_FL=BUILDING STORY 2_SCH=D ERV DOAS SUPPLY FAN INLET NODE,Air,1
 Node,488,ALL_ST=CLASSROOM/LECTURE HALL/TRAINING ROOM OTHER_FL=BUILDING STORY 2_SCH=D ERV DOAS EXHAUST FAN INLET NODE,Air,1
 Node,489,ALL_ST=CLASSROOM/LECTURE HALL/TRAINING ROOM OTHER_FL=BUILDING STORY 2_SCH=D ERV DOAS EXHAUST FAN OUTLET NODE,Air,1
 Node,490,ALL_ST=CLASSROOM/LECTURE HALL/TRAINING ROOM OTHER_FL=BUILDING STORY 2_SCH=D 1 ERV DOAS SUPPLY FAN INLET NODE,Air,1
 Node,491,ALL_ST=CLASSROOM/LECTURE HALL/TRAINING ROOM OTHER_FL=BUILDING STORY 2_SCH=D 1 ERV DOAS EXHAUST FAN INLET NODE,Air,1
 Node,492,ALL_ST=CLASSROOM/LECTURE HALL/TRAINING ROOM OTHER_FL=BUILDING STORY 2_SCH=D 1 ERV DOAS EXHAUST FAN OUTLET NODE,Air,1
 Node,493,ALL_ST=CLASSROOM/LECTURE HALL/TRAINING ROOM OTHER_FL=BUILDING STORY 2_SCH=D 2 ERV DOAS SUPPLY FAN INLET NODE,Air,1
 Node,494,ALL_ST=CLASSROOM/LECTURE HALL/TRAINING ROOM OTHER_FL=BUILDING STORY 2_SCH=D 2 ERV DOAS EXHAUST FAN INLET NODE,Air,1
 Node,495,ALL_ST=CLASSROOM/LECTURE HALL/TRAINING ROOM OTHER_FL=BUILDING STORY 2_SCH=D 2 ERV DOAS EXHAUST FAN OUTLET NODE,Air,1
 Node,496,ALL_ST=CLASSROOM/LECTURE HALL/TRAINING ROOM OTHER_FL=BUILDING STORY 2_SCH=D 3 ERV DOAS SUPPLY FAN INLET NODE,Air,1
 Node,497,ALL_ST=CLASSROOM/LECTURE HALL/TRAINING ROOM OTHER_FL=BUILDING STORY 2_SCH=D 3 ERV DOAS EXHAUST FAN INLET NODE,Air,1
 Node,498,ALL_ST=CLASSROOM/LECTURE HALL/TRAINING ROOM OTHER_FL=BUILDING STORY 2_SCH=D 3 ERV DOAS EXHAUST FAN OUTLET NODE,Air,1
 Node,499,ALL_ST=CONFERENCE/MEETING/MULTI-PURPOSE ROOM_FL=BUILDING STORY 1_SCH=C ERV DOAS SUPPLY FAN INLET NODE,Air,1
 Node,500,ALL_ST=CONFERENCE/MEETING/MULTI-PURPOSE ROOM_FL=BUILDING STORY 1_SCH=C ERV DOAS EXHAUST FAN INLET NODE,Air,1
 Node,501,ALL_ST=CONFERENCE/MEETING/MULTI-PURPOSE ROOM_FL=BUILDING STORY 1_SCH=C ERV DOAS EXHAUST FAN OUTLET NODE,Air,1
 Node,502,ALL_ST=FOOD PREPARATION AREA_FL=BUILDING STORY 1_SCH=B ERV DOAS SUPPLY FAN INLET NODE,Air,1
 Node,503,ALL_ST=FOOD PREPARATION AREA_FL=BUILDING STORY 1_SCH=B ERV DOAS EXHAUST FAN INLET NODE,Air,1
 Node,504,ALL_ST=FOOD PREPARATION AREA_FL=BUILDING STORY 1_SCH=B ERV DOAS EXHAUST FAN OUTLET NODE,Air,1
 Node,505,ALL_ST=GYMNASIUM/FITNESS CENTRE PLAYING AREA_FL=BUILDING STORY 1_SCH=B ERV DOAS SUPPLY FAN INLET NODE,Air,1
 Node,506,ALL_ST=GYMNASIUM/FITNESS CENTRE PLAYING AREA_FL=BUILDING STORY 1_SCH=B ERV DOAS EXHAUST FAN INLET NODE,Air,1
 Node,507,ALL_ST=GYMNASIUM/FITNESS CENTRE PLAYING AREA_FL=BUILDING STORY 1_SCH=B ERV DOAS EXHAUST FAN OUTLET NODE,Air,1
 Node,508,536GAL NATURALGAS WATER HEATER - 1515KBTU/HR 0.802 THERM EFF ASHPWH FAN OUTLET - SPLITTER INLET,Air,1
 Node,509,ALL_ST=GYMNASIUM/FITNESS CENTRE PLAYING AREA_FL=BUILDING STORY 1_SCH=B 1 ERV DOAS SUPPLY FAN INLET NODE,Air,1
 Node,510,ALL_ST=GYMNASIUM/FITNESS CENTRE PLAYING AREA_FL=BUILDING STORY 1_SCH=B 1 ERV DOAS EXHAUST FAN INLET NODE,Air,1
 Node,511,ALL_ST=GYMNASIUM/FITNESS CENTRE PLAYING AREA_FL=BUILDING STORY 1_SCH=B 1 ERV DOAS EXHAUST FAN OUTLET NODE,Air,1
 Node,512,ALL_ST=LIBRARY READING AREA_FL=BUILDING STORY 2_SCH=C ERV DOAS SUPPLY FAN INLET NODE,Air,1
 Node,513,ALL_ST=LIBRARY READING AREA_FL=BUILDING STORY 2_SCH=C ERV DOAS EXHAUST FAN INLET NODE,Air,1
 Node,514,ALL_ST=LIBRARY READING AREA_FL=BUILDING STORY 2_SCH=C ERV DOAS EXHAUST FAN OUTLET NODE,Air,1
 Node,515,ALL_ST=LOBBY - OTHER_FL=BUILDING STORY 1_SCH=C ERV DOAS SUPPLY FAN INLET NODE,Air,1
 Node,516,ALL_ST=LOBBY - OTHER_FL=BUILDING STORY 1_SCH=C ERV DOAS EXHAUST FAN INLET NODE,Air,1
 Node,517,ALL_ST=LOBBY - OTHER_FL=BUILDING STORY 1_SCH=C ERV DOAS EXHAUST FAN OUTLET NODE,Air,1
 Node,518,ALL_ST=LOBBY - OTHER_FL=BUILDING STORY 2_SCH=C ERV DOAS SUPPLY FAN INLET NODE,Air,1
 Node,519,ALL_ST=LOBBY - OTHER_FL=BUILDING STORY 2_SCH=C ERV DOAS EXHAUST FAN INLET NODE,Air,1
 Node,520,ALL_ST=LOBBY - OTHER_FL=BUILDING STORY 2_SCH=C ERV DOAS EXHAUST FAN OUTLET NODE,Air,1
 Node,521,ALL_ST=OFFICE ENCLOSED <= 25 M2_FL=BUILDING STORY 1_SCH=A ERV DOAS SUPPLY FAN INLET NODE,Air,1
 Node,522,ALL_ST=OFFICE ENCLOSED <= 25 M2_FL=BUILDING STORY 1_SCH=A ERV DOAS EXHAUST FAN INLET NODE,Air,1
 Node,523,ALL_ST=OFFICE ENCLOSED <= 25 M2_FL=BUILDING STORY 1_SCH=A ERV DOAS EXHAUST FAN OUTLET NODE,Air,1
 Node,524,ALL_ST=OFFICE ENCLOSED <= 25 M2_FL=BUILDING STORY 2_SCH=A ERV DOAS SUPPLY FAN INLET NODE,Air,1
 Node,525,ALL_ST=OFFICE ENCLOSED <= 25 M2_FL=BUILDING STORY 2_SCH=A ERV DOAS EXHAUST FAN INLET NODE,Air,1
 Node,526,ALL_ST=OFFICE ENCLOSED <= 25 M2_FL=BUILDING STORY 2_SCH=A ERV DOAS EXHAUST FAN OUTLET NODE,Air,1
 Node,527,WET_ST=WASHROOM - OTHER-SCH-D_FL=BUILDING STORY 1_SCHD ERV DOAS SUPPLY FAN INLET NODE,Air,1
 Node,528,WET_ST=WASHROOM - OTHER-SCH-D_FL=BUILDING STORY 1_SCHD ERV DOAS EXHAUST FAN INLET NODE,Air,1
 Node,529,WET_ST=WASHROOM - OTHER-SCH-D_FL=BUILDING STORY 1_SCHD ERV DOAS EXHAUST FAN OUTLET NODE,Air,1
 Node,530,WET_ST=WASHROOM - OTHER-SCH-D_FL=BUILDING STORY 2_SCHD ERV DOAS SUPPLY FAN INLET NODE,Air,1
 Node,531,WET_ST=WASHROOM - OTHER-SCH-D_FL=BUILDING STORY 2_SCHD ERV DOAS EXHAUST FAN INLET NODE,Air,1
 Node,532,WET_ST=WASHROOM - OTHER-SCH-D_FL=BUILDING STORY 2_SCHD ERV DOAS EXHAUST FAN OUTLET NODE,Air,1
 Node,533,WILD_ST=CORRIDOR/TRANSITION AREA OTHER-SCH-D_FL=BUILDING STORY 1_SCH=D ERV DOAS SUPPLY FAN INLET NODE,Air,1
 Node,534,WILD_ST=CORRIDOR/TRANSITION AREA OTHER-SCH-D_FL=BUILDING STORY 1_SCH=D ERV DOAS EXHAUST FAN INLET NODE,Air,1
 Node,535,WILD_ST=CORRIDOR/TRANSITION AREA OTHER-SCH-D_FL=BUILDING STORY 1_SCH=D ERV DOAS EXHAUST FAN OUTLET NODE,Air,1
 Node,536,WILD_ST=CORRIDOR/TRANSITION AREA OTHER-SCH-D_FL=BUILDING STORY 1_SCH=D 1 ERV DOAS SUPPLY FAN INLET NODE,Air,1
 Node,537,WILD_ST=CORRIDOR/TRANSITION AREA OTHER-SCH-D_FL=BUILDING STORY 1_SCH=D 1 ERV DOAS EXHAUST FAN INLET NODE,Air,1
 Node,538,WILD_ST=CORRIDOR/TRANSITION AREA OTHER-SCH-D_FL=BUILDING STORY 1_SCH=D 1 ERV DOAS EXHAUST FAN OUTLET NODE,Air,1
 Node,539,WILD_ST=CORRIDOR/TRANSITION AREA OTHER-SCH-D_FL=BUILDING STORY 2_SCH=D ERV DOAS SUPPLY FAN INLET NODE,Air,1
 Node,540,WILD_ST=CORRIDOR/TRANSITION AREA OTHER-SCH-D_FL=BUILDING STORY 2_SCH=D ERV DOAS EXHAUST FAN INLET NODE,Air,1
 Node,541,WILD_ST=CORRIDOR/TRANSITION AREA OTHER-SCH-D_FL=BUILDING STORY 2_SCH=D ERV DOAS EXHAUST FAN OUTLET NODE,Air,1
 Node,542,WILD_ST=CORRIDOR/TRANSITION AREA OTHER-SCH-D_FL=BUILDING STORY 2_SCH=D 1 ERV DOAS SUPPLY FAN INLET NODE,Air,1
 Node,543,WILD_ST=CORRIDOR/TRANSITION AREA OTHER-SCH-D_FL=BUILDING STORY 2_SCH=D 1 ERV DOAS EXHAUST FAN INLET NODE,Air,1
 Node,544,WILD_ST=CORRIDOR/TRANSITION AREA OTHER-SCH-D_FL=BUILDING STORY 2_SCH=D 1 ERV DOAS EXHAUST FAN OUTLET NODE,Air,1
 Node,545,WILD_ST=ELECTRICAL/MECHANICAL ROOM-SCH-D_FL=BUILDING STORY 1_SCH=D ERV DOAS SUPPLY FAN INLET NODE,Air,1
 Node,546,WILD_ST=ELECTRICAL/MECHANICAL ROOM-SCH-D_FL=BUILDING STORY 1_SCH=D ERV DOAS EXHAUST FAN INLET NODE,Air,1
 Node,547,WILD_ST=ELECTRICAL/MECHANICAL ROOM-SCH-D_FL=BUILDING STORY 1_SCH=D ERV DOAS EXHAUST FAN OUTLET NODE,Air,1
 Node,548,WILD_ST=ELECTRICAL/MECHANICAL ROOM-SCH-D_FL=BUILDING STORY 2_SCH=D ERV DOAS SUPPLY FAN INLET NODE,Air,1
 Node,549,WILD_ST=ELECTRICAL/MECHANICAL ROOM-SCH-D_FL=BUILDING STORY 2_SCH=D ERV DOAS EXHAUST FAN INLET NODE,Air,1
 Node,550,WILD_ST=ELECTRICAL/MECHANICAL ROOM-SCH-D_FL=BUILDING STORY 2_SCH=D ERV DOAS EXHAUST FAN OUTLET NODE,Air,1
 Node,551,536GAL NATURALGAS WATER HEATER - 1515KBTU/HR 0.802 THERM EFF ASHPWH OUTDOOR AIR,Air,1
 Node,552,536GAL NATURALGAS WATER HEATER - 1515KBTU/HR 0.802 THERM EFF ASHPWH EXHAUST AIR,Air,0
 Node,553,NODE 402,Air,2
 Node,554,NODE 404,Air,2
 Node,555,NODE 406,Air,2
 Node,556,NODE 408,Air,2
 Node,557,NODE 410,Air,2
 Node,558,NODE 412,Air,2
 Node,559,NODE 414,Air,2
 Node,560,NODE 416,Air,2
 Node,561,NODE 418,Air,2
 Node,562,NODE 420,Air,2
 Node,563,NODE 422,Air,2
 Node,564,NODE 424,Air,2
 Node,565,NODE 426,Air,2
 Node,566,NODE 428,Air,2
 Node,567,NODE 430,Air,2
 Node,568,NODE 432,Air,2
 Node,569,NODE 434,Air,2
 Node,570,NODE 436,Air,2
 Node,571,NODE 438,Air,2
 Node,572,NODE 440,Air,2
 Node,573,NODE 458,Air,1
 Node,574,NODE 482,Air,1
 Node,575,NODE 469,Air,1
 Node,576,NODE 486,Air,1
 Node,577,NODE 452,Air,1
 Node,578,NODE 484,Air,1
 Node,579,NODE 478,Air,1
 Node,580,NODE 467,Air,1
 Node,581,NODE 480,Air,1
 Node,582,NODE 444,Air,1
 Node,583,NODE 446,Air,1
 Node,584,NODE 450,Air,1
 Node,585,NODE 448,Air,1
 Node,586,NODE 456,Air,1
 Node,587,NODE 474,Air,1
 Node,588,NODE 476,Air,1
 Node,589,NODE 454,Air,1
 Node,590,NODE 442,Air,1
 Node,591,NODE 471,Air,1
 Node,592,NODE 472,Air,1
 Node,593,NODE 460,Air,1
 Node,594,NODE 461,Air,1
 Node,595,NODE 462,Air,1
 Node,596,NODE 463,Air,1
 Node,597,NODE 464,Air,1
 Node,598,NODE 465,Air,1
 Node,599,NODE 403,Air,2
 Node,600,NODE 212,Air,0
 Node,601,NODE 405,Air,2
 Node,602,NODE 121,Air,0
 Node,603,NODE 407,Air,2
 Node,604,NODE 173,Air,0
 Node,605,NODE 409,Air,2
 Node,606,NODE 186,Air,0
 Node,607,NODE 411,Air,2
 Node,608,NODE 264,Air,0
 Node,609,NODE 413,Air,2
 Node,610,NODE 134,Air,0
 Node,611,NODE 415,Air,2
 Node,612,NODE 147,Air,0
 Node,613,NODE 417,Air,2
 Node,614,NODE 160,Air,0
 Node,615,NODE 419,Air,2
 Node,616,NODE 199,Air,0
 Node,617,NODE 421,Air,2
 Node,618,NODE 316,Air,0
 Node,619,NODE 423,Air,2
 Node,620,NODE 290,Air,0
 Node,621,NODE 425,Air,2
 Node,622,NODE 251,Air,0
 Node,623,NODE 427,Air,2
 Node,624,NODE 277,Air,0
 Node,625,NODE 429,Air,2
 Node,626,NODE 225,Air,0
 Node,627,NODE 431,Air,2
 Node,628,NODE 95,Air,0
 Node,629,NODE 433,Air,2
 Node,630,NODE 108,Air,0
 Node,631,NODE 435,Air,2
 Node,632,NODE 238,Air,0
 Node,633,NODE 437,Air,2
 Node,634,NODE 303,Air,0
 Node,635,NODE 439,Air,2
 Node,636,NODE 30,Air,0
 Node,637,NODE 441,Air,2
 Node,638,NODE 54,Air,0
! ===============================================================
! Suspicious nodes have 0 references.  It is normal for some nodes, however.
! Listing nodes with 0 references (culled from previous list):
! <Suspicious Node>,<NodeNumber>,<Node Name>,<Node Fluid Type>,<# Times Node Referenced After Definition>
 Suspicious Node,349,NODE 34,Air,0
 Suspicious Node,351,NODE 13,Air,0
 Suspicious Node,353,NODE 25,Air,0
 Suspicious Node,355,NODE 28,Air,0
 Suspicious Node,357,NODE 46,Air,0
 Suspicious Node,359,NODE 16,Air,0
 Suspicious Node,361,NODE 19,Air,0
 Suspicious Node,363,NODE 22,Air,0
 Suspicious Node,365,NODE 31,Air,0
 Suspicious Node,367,NODE 58,Air,0
 Suspicious Node,369,NODE 52,Air,0
 Suspicious Node,371,NODE 43,Air,0
 Suspicious Node,373,NODE 49,Air,0
 Suspicious Node,375,NODE 37,Air,0
 Suspicious Node,377,NODE 7,Air,0
 Suspicious Node,379,NODE 10,Air,0
 Suspicious Node,381,NODE 40,Air,0
 Suspicious Node,383,NODE 55,Air,0
 Suspicious Node,385,NODE 1,Air,0
 Suspicious Node,387,NODE 4,Air,0
 Suspicious Node,389,NODE 64,Air,0
 Suspicious Node,391,NODE 67,Air,0
 Suspicious Node,393,NODE 61,Air,0
 Suspicious Node,395,NODE 70,Air,0
 Suspicious Node,397,NODE 73,Air,0
 Suspicious Node,399,NODE 76,Air,0
 Suspicious Node,471,MODEL OUTDOOR AIR NODE,Air,0
 Suspicious Node,552,536GAL NATURALGAS WATER HEATER - 1515KBTU/HR 0.802 THERM EFF ASHPWH EXHAUST AIR,Air,0
 Suspicious Node,600,NODE 212,Air,0
 Suspicious Node,602,NODE 121,Air,0
 Suspicious Node,604,NODE 173,Air,0
 Suspicious Node,606,NODE 186,Air,0
 Suspicious Node,608,NODE 264,Air,0
 Suspicious Node,610,NODE 134,Air,0
 Suspicious Node,612,NODE 147,Air,0
 Suspicious Node,614,NODE 160,Air,0
 Suspicious Node,616,NODE 199,Air,0
 Suspicious Node,618,NODE 316,Air,0
 Suspicious Node,620,NODE 290,Air,0
 Suspicious Node,622,NODE 251,Air,0
 Suspicious Node,624,NODE 277,Air,0
 Suspicious Node,626,NODE 225,Air,0
 Suspicious Node,628,NODE 95,Air,0
 Suspicious Node,630,NODE 108,Air,0
 Suspicious Node,632,NODE 238,Air,0
 Suspicious Node,634,NODE 303,Air,0
 Suspicious Node,636,NODE 30,Air,0
 Suspicious Node,638,NODE 54,Air,0
! ===============================================================
! <#Branch Lists>,<Number of Branch Lists>
 #Branch Lists,24
! <Branch List>,<Branch List Count>,<Branch List Name>,<Loop Name>,<Loop Type>,<Number of Branches>
! <Branch>,<Branch Count>,<Branch Name>,<Loop Name>,<Loop Type>,<Branch Inlet Node Name>,<Branch Outlet Node Name>
 Branch List,1,SYS_3_PSZ ALL_ST=AUDIENCE SEATING AREA PERMANENT - AUDITORIUM_FL=BUILDING STORY 1_SCH=C SUPPLY BRANCHES,SYS_3_PSZ ALL_ST=AUDIENCE SEATING AREA PERMANENT - AUDITORIUM_FL=BUILDING STORY 1_SCH=C,Air,1
   Branch,1,SYS_3_PSZ ALL_ST=AUDIENCE SEATING AREA PERMANENT - AUDITORIUM_FL=BUILDING STORY 1_SCH=C MAIN BRANCH,SYS_3_PSZ ALL_ST=AUDIENCE SEATING AREA PERMANENT - AUDITORIUM_FL=BUILDING STORY 1_SCH=C,Air,NODE 206,NODE 207
 Branch List,2,SYS_3_PSZ ALL_ST=CLASSROOM/LECTURE HALL/TRAINING ROOM OTHER_FL=BUILDING STORY 1_SCH=D SUPPLY BRANCHES,SYS_3_PSZ ALL_ST=CLASSROOM/LECTURE HALL/TRAINING ROOM OTHER_FL=BUILDING STORY 1_SCH=D,Air,1
   Branch,1,SYS_3_PSZ ALL_ST=CLASSROOM/LECTURE HALL/TRAINING ROOM OTHER_FL=BUILDING STORY 1_SCH=D MAIN BRANCH,SYS_3_PSZ ALL_ST=CLASSROOM/LECTURE HALL/TRAINING ROOM OTHER_FL=BUILDING STORY 1_SCH=D,Air,NODE 115,NODE 116
 Branch List,3,SYS_3_PSZ ALL_ST=CLASSROOM/LECTURE HALL/TRAINING ROOM OTHER_FL=BUILDING STORY 1_SCH=D 1 SUPPLY BRANCHES,SYS_3_PSZ ALL_ST=CLASSROOM/LECTURE HALL/TRAINING ROOM OTHER_FL=BUILDING STORY 1_SCH=D 1,Air,1
   Branch,1,SYS_3_PSZ ALL_ST=CLASSROOM/LECTURE HALL/TRAINING ROOM OTHER_FL=BUILDING STORY 1_SCH=D 1 MAIN BRANCH,SYS_3_PSZ ALL_ST=CLASSROOM/LECTURE HALL/TRAINING ROOM OTHER_FL=BUILDING STORY 1_SCH=D 1,Air,NODE 167,NODE 168
 Branch List,4,SYS_3_PSZ ALL_ST=CLASSROOM/LECTURE HALL/TRAINING ROOM OTHER_FL=BUILDING STORY 1_SCH=D 2 SUPPLY BRANCHES,SYS_3_PSZ ALL_ST=CLASSROOM/LECTURE HALL/TRAINING ROOM OTHER_FL=BUILDING STORY 1_SCH=D 2,Air,1
   Branch,1,SYS_3_PSZ ALL_ST=CLASSROOM/LECTURE HALL/TRAINING ROOM OTHER_FL=BUILDING STORY 1_SCH=D 2 MAIN BRANCH,SYS_3_PSZ ALL_ST=CLASSROOM/LECTURE HALL/TRAINING ROOM OTHER_FL=BUILDING STORY 1_SCH=D 2,Air,NODE 180,NODE 181
 Branch List,5,SYS_3_PSZ ALL_ST=CLASSROOM/LECTURE HALL/TRAINING ROOM OTHER_FL=BUILDING STORY 1_SCH=D 3 SUPPLY BRANCHES,SYS_3_PSZ ALL_ST=CLASSROOM/LECTURE HALL/TRAINING ROOM OTHER_FL=BUILDING STORY 1_SCH=D 3,Air,1
   Branch,1,SYS_3_PSZ ALL_ST=CLASSROOM/LECTURE HALL/TRAINING ROOM OTHER_FL=BUILDING STORY 1_SCH=D 3 MAIN BRANCH,SYS_3_PSZ ALL_ST=CLASSROOM/LECTURE HALL/TRAINING ROOM OTHER_FL=BUILDING STORY 1_SCH=D 3,Air,NODE 258,NODE 259
 Branch List,6,SYS_3_PSZ ALL_ST=CLASSROOM/LECTURE HALL/TRAINING ROOM OTHER_FL=BUILDING STORY 2_SCH=D SUPPLY BRANCHES,SYS_3_PSZ ALL_ST=CLASSROOM/LECTURE HALL/TRAINING ROOM OTHER_FL=BUILDING STORY 2_SCH=D,Air,1
   Branch,1,SYS_3_PSZ ALL_ST=CLASSROOM/LECTURE HALL/TRAINING ROOM OTHER_FL=BUILDING STORY 2_SCH=D MAIN BRANCH,SYS_3_PSZ ALL_ST=CLASSROOM/LECTURE HALL/TRAINING ROOM OTHER_FL=BUILDING STORY 2_SCH=D,Air,NODE 128,NODE 129
 Branch List,7,SYS_3_PSZ ALL_ST=CLASSROOM/LECTURE HALL/TRAINING ROOM OTHER_FL=BUILDING STORY 2_SCH=D 1 SUPPLY BRANCHES,SYS_3_PSZ ALL_ST=CLASSROOM/LECTURE HALL/TRAINING ROOM OTHER_FL=BUILDING STORY 2_SCH=D 1,Air,1
   Branch,1,SYS_3_PSZ ALL_ST=CLASSROOM/LECTURE HALL/TRAINING ROOM OTHER_FL=BUILDING STORY 2_SCH=D 1 MAIN BRANCH,SYS_3_PSZ ALL_ST=CLASSROOM/LECTURE HALL/TRAINING ROOM OTHER_FL=BUILDING STORY 2_SCH=D 1,Air,NODE 141,NODE 142
 Branch List,8,SYS_3_PSZ ALL_ST=CLASSROOM/LECTURE HALL/TRAINING ROOM OTHER_FL=BUILDING STORY 2_SCH=D 2 SUPPLY BRANCHES,SYS_3_PSZ ALL_ST=CLASSROOM/LECTURE HALL/TRAINING ROOM OTHER_FL=BUILDING STORY 2_SCH=D 2,Air,1
   Branch,1,SYS_3_PSZ ALL_ST=CLASSROOM/LECTURE HALL/TRAINING ROOM OTHER_FL=BUILDING STORY 2_SCH=D 2 MAIN BRANCH,SYS_3_PSZ ALL_ST=CLASSROOM/LECTURE HALL/TRAINING ROOM OTHER_FL=BUILDING STORY 2_SCH=D 2,Air,NODE 154,NODE 155
 Branch List,9,SYS_3_PSZ ALL_ST=CLASSROOM/LECTURE HALL/TRAINING ROOM OTHER_FL=BUILDING STORY 2_SCH=D 3 SUPPLY BRANCHES,SYS_3_PSZ ALL_ST=CLASSROOM/LECTURE HALL/TRAINING ROOM OTHER_FL=BUILDING STORY 2_SCH=D 3,Air,1
   Branch,1,SYS_3_PSZ ALL_ST=CLASSROOM/LECTURE HALL/TRAINING ROOM OTHER_FL=BUILDING STORY 2_SCH=D 3 MAIN BRANCH,SYS_3_PSZ ALL_ST=CLASSROOM/LECTURE HALL/TRAINING ROOM OTHER_FL=BUILDING STORY 2_SCH=D 3,Air,NODE 193,NODE 194
 Branch List,10,SYS_3_PSZ ALL_ST=CONFERENCE/MEETING/MULTI-PURPOSE ROOM_FL=BUILDING STORY 1_SCH=C SUPPLY BRANCHES,SYS_3_PSZ ALL_ST=CONFERENCE/MEETING/MULTI-PURPOSE ROOM_FL=BUILDING STORY 1_SCH=C,Air,1
   Branch,1,SYS_3_PSZ ALL_ST=CONFERENCE/MEETING/MULTI-PURPOSE ROOM_FL=BUILDING STORY 1_SCH=C MAIN BRANCH,SYS_3_PSZ ALL_ST=CONFERENCE/MEETING/MULTI-PURPOSE ROOM_FL=BUILDING STORY 1_SCH=C,Air,NODE 310,NODE 311
 Branch List,11,SYS_3_PSZ ALL_ST=FOOD PREPARATION AREA_FL=BUILDING STORY 1_SCH=B SUPPLY BRANCHES,SYS_3_PSZ ALL_ST=FOOD PREPARATION AREA_FL=BUILDING STORY 1_SCH=B,Air,1
   Branch,1,SYS_3_PSZ ALL_ST=FOOD PREPARATION AREA_FL=BUILDING STORY 1_SCH=B MAIN BRANCH,SYS_3_PSZ ALL_ST=FOOD PREPARATION AREA_FL=BUILDING STORY 1_SCH=B,Air,NODE 284,NODE 285
 Branch List,12,SYS_3_PSZ ALL_ST=GYMNASIUM/FITNESS CENTRE PLAYING AREA_FL=BUILDING STORY 1_SCH=B SUPPLY BRANCHES,SYS_3_PSZ ALL_ST=GYMNASIUM/FITNESS CENTRE PLAYING AREA_FL=BUILDING STORY 1_SCH=B,Air,1
   Branch,1,SYS_3_PSZ ALL_ST=GYMNASIUM/FITNESS CENTRE PLAYING AREA_FL=BUILDING STORY 1_SCH=B MAIN BRANCH,SYS_3_PSZ ALL_ST=GYMNASIUM/FITNESS CENTRE PLAYING AREA_FL=BUILDING STORY 1_SCH=B,Air,NODE 245,NODE 246
 Branch List,13,SYS_3_PSZ ALL_ST=GYMNASIUM/FITNESS CENTRE PLAYING AREA_FL=BUILDING STORY 1_SCH=B 1 SUPPLY BRANCHES,SYS_3_PSZ ALL_ST=GYMNASIUM/FITNESS CENTRE PLAYING AREA_FL=BUILDING STORY 1_SCH=B 1,Air,1
   Branch,1,SYS_3_PSZ ALL_ST=GYMNASIUM/FITNESS CENTRE PLAYING AREA_FL=BUILDING STORY 1_SCH=B 1 MAIN BRANCH,SYS_3_PSZ ALL_ST=GYMNASIUM/FITNESS CENTRE PLAYING AREA_FL=BUILDING STORY 1_SCH=B 1,Air,NODE 271,NODE 272
 Branch List,14,SYS_3_PSZ ALL_ST=LIBRARY READING AREA_FL=BUILDING STORY 2_SCH=C SUPPLY BRANCHES,SYS_3_PSZ ALL_ST=LIBRARY READING AREA_FL=BUILDING STORY 2_SCH=C,Air,1
   Branch,1,SYS_3_PSZ ALL_ST=LIBRARY READING AREA_FL=BUILDING STORY 2_SCH=C MAIN BRANCH,SYS_3_PSZ ALL_ST=LIBRARY READING AREA_FL=BUILDING STORY 2_SCH=C,Air,NODE 219,NODE 220
 Branch List,15,SYS_3_PSZ ALL_ST=LOBBY - OTHER_FL=BUILDING STORY 1_SCH=C SUPPLY BRANCHES,SYS_3_PSZ ALL_ST=LOBBY - OTHER_FL=BUILDING STORY 1_SCH=C,Air,1
   Branch,1,SYS_3_PSZ ALL_ST=LOBBY - OTHER_FL=BUILDING STORY 1_SCH=C MAIN BRANCH,SYS_3_PSZ ALL_ST=LOBBY - OTHER_FL=BUILDING STORY 1_SCH=C,Air,NODE 89,NODE 90
 Branch List,16,SYS_3_PSZ ALL_ST=LOBBY - OTHER_FL=BUILDING STORY 2_SCH=C SUPPLY BRANCHES,SYS_3_PSZ ALL_ST=LOBBY - OTHER_FL=BUILDING STORY 2_SCH=C,Air,1
   Branch,1,SYS_3_PSZ ALL_ST=LOBBY - OTHER_FL=BUILDING STORY 2_SCH=C MAIN BRANCH,SYS_3_PSZ ALL_ST=LOBBY - OTHER_FL=BUILDING STORY 2_SCH=C,Air,NODE 102,NODE 103
 Branch List,17,SYS_3_PSZ ALL_ST=OFFICE ENCLOSED <= 25 M2_FL=BUILDING STORY 1_SCH=A SUPPLY BRANCHES,SYS_3_PSZ ALL_ST=OFFICE ENCLOSED <= 25 M2_FL=BUILDING STORY 1_SCH=A,Air,1
   Branch,1,SYS_3_PSZ ALL_ST=OFFICE ENCLOSED <= 25 M2_FL=BUILDING STORY 1_SCH=A MAIN BRANCH,SYS_3_PSZ ALL_ST=OFFICE ENCLOSED <= 25 M2_FL=BUILDING STORY 1_SCH=A,Air,NODE 232,NODE 233
 Branch List,18,SYS_3_PSZ ALL_ST=OFFICE ENCLOSED <= 25 M2_FL=BUILDING STORY 2_SCH=A SUPPLY BRANCHES,SYS_3_PSZ ALL_ST=OFFICE ENCLOSED <= 25 M2_FL=BUILDING STORY 2_SCH=A,Air,1
   Branch,1,SYS_3_PSZ ALL_ST=OFFICE ENCLOSED <= 25 M2_FL=BUILDING STORY 2_SCH=A MAIN BRANCH,SYS_3_PSZ ALL_ST=OFFICE ENCLOSED <= 25 M2_FL=BUILDING STORY 2_SCH=A,Air,NODE 297,NODE 298
 Branch List,19,SYS_4_PSZ_WET_ST=WASHROOM - OTHER-SCH-D_FL=BUILDING STORY 1_SCHD SUPPLY BRANCHES,SYS_4_PSZ_WET_ST=WASHROOM - OTHER-SCH-D_FL=BUILDING STORY 1_SCHD,Air,1
   Branch,1,SYS_4_PSZ_WET_ST=WASHROOM - OTHER-SCH-D_FL=BUILDING STORY 1_SCHD MAIN BRANCH,SYS_4_PSZ_WET_ST=WASHROOM - OTHER-SCH-D_FL=BUILDING STORY 1_SCHD,Air,NODE 21,NODE 23
 Branch List,20,SYS_4_PSZ_WILD_ST=CORRIDOR/TRANSITION AREA OTHER-SCH-D_FL=BUILDING STORY 2_SCH=D SUPPLY BRANCHES,SYS_4_PSZ_WILD_ST=CORRIDOR/TRANSITION AREA OTHER-SCH-D_FL=BUILDING STORY 2_SCH=D,Air,1
   Branch,1,SYS_4_PSZ_WILD_ST=CORRIDOR/TRANSITION AREA OTHER-SCH-D_FL=BUILDING STORY 2_SCH=D MAIN BRANCH,SYS_4_PSZ_WILD_ST=CORRIDOR/TRANSITION AREA OTHER-SCH-D_FL=BUILDING STORY 2_SCH=D,Air,NODE 45,NODE 47
 Branch List,21,HOT WATER LOOP SUPPLY BRANCHES,HOT WATER LOOP,Plant Supply,5
   Branch,1,HOT WATER LOOP SUPPLY INLET BRANCH,HOT WATER LOOP,Plant Supply,NODE 2,NODE 11
   Branch,2,HOT WATER LOOP SUPPLY BRANCH 1,HOT WATER LOOP,Plant Supply,NODE 5,NODE 12
   Branch,3,HOT WATER LOOP SUPPLY BRANCH 2,HOT WATER LOOP,Plant Supply,NODE 14,NODE 15
   Branch,4,HOT WATER LOOP SUPPLY BRANCH 3,HOT WATER LOOP,Plant Supply,NODE 17,NODE 18
   Branch,5,HOT WATER LOOP SUPPLY OUTLET BRANCH,HOT WATER LOOP,Plant Supply,NODE 20,NODE 3
 Branch List,22,HOT WATER LOOP DEMAND BRANCHES,HOT WATER LOOP,Plant Demand,29
   Branch,1,HOT WATER LOOP DEMAND INLET BRANCH,HOT WATER LOOP,Plant Demand,NODE 6,HOT WATER LOOP DEMAND INLET PIPE NODE
   Branch,2,HOT WATER LOOP DEMAND BRANCH 1,HOT WATER LOOP,Plant Demand,NODE 9,NODE 38
   Branch,3,HOT WATER LOOP DEMAND BRANCH 2,HOT WATER LOOP,Plant Demand,NODE 42,NODE 44
   Branch,4,HOT WATER LOOP DEMAND BRANCH 3,HOT WATER LOOP,Plant Demand,NODE 62,NODE 63
   Branch,5,HOT WATER LOOP DEMAND BRANCH 4,HOT WATER LOOP,Plant Demand,NODE 68,NODE 69
   Branch,6,HOT WATER LOOP DEMAND BRANCH 5,HOT WATER LOOP,Plant Demand,NODE 74,NODE 75
   Branch,7,HOT WATER LOOP DEMAND BRANCH 6,HOT WATER LOOP,Plant Demand,NODE 79,NODE 80
   Branch,8,HOT WATER LOOP DEMAND BRANCH 7,HOT WATER LOOP,Plant Demand,NODE 83,NODE 84
   Branch,9,HOT WATER LOOP DEMAND BRANCH 8,HOT WATER LOOP,Plant Demand,NODE 87,NODE 88
   Branch,10,HOT WATER LOOP DEMAND BRANCH 9,HOT WATER LOOP,Plant Demand,NODE 100,NODE 101
   Branch,11,HOT WATER LOOP DEMAND BRANCH 10,HOT WATER LOOP,Plant Demand,NODE 113,NODE 114
   Branch,12,HOT WATER LOOP DEMAND BRANCH 11,HOT WATER LOOP,Plant Demand,NODE 126,NODE 127
   Branch,13,HOT WATER LOOP DEMAND BRANCH 12,HOT WATER LOOP,Plant Demand,NODE 139,NODE 140
   Branch,14,HOT WATER LOOP DEMAND BRANCH 13,HOT WATER LOOP,Plant Demand,NODE 152,NODE 153
   Branch,15,HOT WATER LOOP DEMAND BRANCH 14,HOT WATER LOOP,Plant Demand,NODE 165,NODE 166
   Branch,16,HOT WATER LOOP DEMAND BRANCH 15,HOT WATER LOOP,Plant Demand,NODE 178,NODE 179
   Branch,17,HOT WATER LOOP DEMAND BRANCH 16,HOT WATER LOOP,Plant Demand,NODE 191,NODE 192
   Branch,18,HOT WATER LOOP DEMAND BRANCH 17,HOT WATER LOOP,Plant Demand,NODE 204,NODE 205
   Branch,19,HOT WATER LOOP DEMAND BRANCH 18,HOT WATER LOOP,Plant Demand,NODE 217,NODE 218
   Branch,20,HOT WATER LOOP DEMAND BRANCH 19,HOT WATER LOOP,Plant Demand,NODE 230,NODE 231
   Branch,21,HOT WATER LOOP DEMAND BRANCH 20,HOT WATER LOOP,Plant Demand,NODE 243,NODE 244
   Branch,22,HOT WATER LOOP DEMAND BRANCH 21,HOT WATER LOOP,Plant Demand,NODE 256,NODE 257
   Branch,23,HOT WATER LOOP DEMAND BRANCH 22,HOT WATER LOOP,Plant Demand,NODE 269,NODE 270
   Branch,24,HOT WATER LOOP DEMAND BRANCH 23,HOT WATER LOOP,Plant Demand,NODE 282,NODE 283
   Branch,25,HOT WATER LOOP DEMAND BRANCH 24,HOT WATER LOOP,Plant Demand,NODE 295,NODE 296
   Branch,26,HOT WATER LOOP DEMAND BRANCH 25,HOT WATER LOOP,Plant Demand,NODE 308,NODE 309
   Branch,27,HOT WATER LOOP DEMAND BRANCH 26,HOT WATER LOOP,Plant Demand,NODE 321,NODE 322
   Branch,28,HOT WATER LOOP DEMAND BYPASS BRANCH,HOT WATER LOOP,Plant Demand,HOT WATER LOOP DEMAND BYPASS PIPE INLET NODE,HOT WATER LOOP DEMAND BYPASS PIPE OUTLET NODE
   Branch,29,HOT WATER LOOP DEMAND OUTLET BRANCH,HOT WATER LOOP,Plant Demand,HOT WATER LOOP DEMAND OUTLET PIPE NODE,NODE 8
 Branch List,23,MAIN SERVICE WATER LOOP SUPPLY BRANCHES,MAIN SERVICE WATER LOOP,Plant Supply,4
   Branch,1,MAIN SERVICE WATER LOOP SUPPLY INLET BRANCH,MAIN SERVICE WATER LOOP,Plant Supply,NODE 323,NODE 329
   Branch,2,MAIN SERVICE WATER LOOP SUPPLY BRANCH 1,MAIN SERVICE WATER LOOP,Plant Supply,NODE 325,NODE 330
   Branch,3,MAIN SERVICE WATER LOOP SUPPLY BRANCH 2,MAIN SERVICE WATER LOOP,Plant Supply,NODE 331,NODE 332
   Branch,4,MAIN SERVICE WATER LOOP SUPPLY OUTLET BRANCH,MAIN SERVICE WATER LOOP,Plant Supply,NODE 334,NODE 324
 Branch List,24,MAIN SERVICE WATER LOOP DEMAND BRANCHES,MAIN SERVICE WATER LOOP,Plant Demand,36
   Branch,1,MAIN SERVICE WATER LOOP DEMAND INLET BRANCH,MAIN SERVICE WATER LOOP,Plant Demand,NODE 326,NODE 335
   Branch,2,MAIN SERVICE WATER LOOP DEMAND BRANCH 1,MAIN SERVICE WATER LOOP,Plant Demand,NODE 328,NODE 333
   Branch,3,MAIN SERVICE WATER LOOP DEMAND BRANCH 2,MAIN SERVICE WATER LOOP,Plant Demand,NODE 337,NODE 338
   Branch,4,MAIN SERVICE WATER LOOP DEMAND BRANCH 3,MAIN SERVICE WATER LOOP,Plant Demand,NODE 339,NODE 340
   Branch,5,MAIN SERVICE WATER LOOP DEMAND BRANCH 4,MAIN SERVICE WATER LOOP,Plant Demand,NODE 341,NODE 342
   Branch,6,MAIN SERVICE WATER LOOP DEMAND BRANCH 5,MAIN SERVICE WATER LOOP,Plant Demand,NODE 343,NODE 344
   Branch,7,MAIN SERVICE WATER LOOP DEMAND BRANCH 6,MAIN SERVICE WATER LOOP,Plant Demand,NODE 345,NODE 346
   Branch,8,MAIN SERVICE WATER LOOP DEMAND BRANCH 7,MAIN SERVICE WATER LOOP,Plant Demand,NODE 347,NODE 348
   Branch,9,MAIN SERVICE WATER LOOP DEMAND BRANCH 8,MAIN SERVICE WATER LOOP,Plant Demand,NODE 349,NODE 350
   Branch,10,MAIN SERVICE WATER LOOP DEMAND BRANCH 9,MAIN SERVICE WATER LOOP,Plant Demand,NODE 351,NODE 352
   Branch,11,MAIN SERVICE WATER LOOP DEMAND BRANCH 10,MAIN SERVICE WATER LOOP,Plant Demand,NODE 353,NODE 354
   Branch,12,MAIN SERVICE WATER LOOP DEMAND BRANCH 11,MAIN SERVICE WATER LOOP,Plant Demand,NODE 355,NODE 356
   Branch,13,MAIN SERVICE WATER LOOP DEMAND BRANCH 12,MAIN SERVICE WATER LOOP,Plant Demand,NODE 357,NODE 358
   Branch,14,MAIN SERVICE WATER LOOP DEMAND BRANCH 13,MAIN SERVICE WATER LOOP,Plant Demand,NODE 359,NODE 360
   Branch,15,MAIN SERVICE WATER LOOP DEMAND BRANCH 14,MAIN SERVICE WATER LOOP,Plant Demand,NODE 361,NODE 362
   Branch,16,MAIN SERVICE WATER LOOP DEMAND BRANCH 15,MAIN SERVICE WATER LOOP,Plant Demand,NODE 363,NODE 364
   Branch,17,MAIN SERVICE WATER LOOP DEMAND BRANCH 16,MAIN SERVICE WATER LOOP,Plant Demand,NODE 365,NODE 366
   Branch,18,MAIN SERVICE WATER LOOP DEMAND BRANCH 17,MAIN SERVICE WATER LOOP,Plant Demand,NODE 367,NODE 368
   Branch,19,MAIN SERVICE WATER LOOP DEMAND BRANCH 18,MAIN SERVICE WATER LOOP,Plant Demand,NODE 369,NODE 370
   Branch,20,MAIN SERVICE WATER LOOP DEMAND BRANCH 19,MAIN SERVICE WATER LOOP,Plant Demand,NODE 371,NODE 372
   Branch,21,MAIN SERVICE WATER LOOP DEMAND BRANCH 20,MAIN SERVICE WATER LOOP,Plant Demand,NODE 373,NODE 374
   Branch,22,MAIN SERVICE WATER LOOP DEMAND BRANCH 21,MAIN SERVICE WATER LOOP,Plant Demand,NODE 375,NODE 376
   Branch,23,MAIN SERVICE WATER LOOP DEMAND BRANCH 22,MAIN SERVICE WATER LOOP,Plant Demand,NODE 377,NODE 378
   Branch,24,MAIN SERVICE WATER LOOP DEMAND BRANCH 23,MAIN SERVICE WATER LOOP,Plant Demand,NODE 379,NODE 380
   Branch,25,MAIN SERVICE WATER LOOP DEMAND BRANCH 24,MAIN SERVICE WATER LOOP,Plant Demand,NODE 381,NODE 382
   Branch,26,MAIN SERVICE WATER LOOP DEMAND BRANCH 25,MAIN SERVICE WATER LOOP,Plant Demand,NODE 383,NODE 384
   Branch,27,MAIN SERVICE WATER LOOP DEMAND BRANCH 26,MAIN SERVICE WATER LOOP,Plant Demand,NODE 385,NODE 386
   Branch,28,MAIN SERVICE WATER LOOP DEMAND BRANCH 27,MAIN SERVICE WATER LOOP,Plant Demand,NODE 387,NODE 388
   Branch,29,MAIN SERVICE WATER LOOP DEMAND BRANCH 28,MAIN SERVICE WATER LOOP,Plant Demand,NODE 389,NODE 390
   Branch,30,MAIN SERVICE WATER LOOP DEMAND BRANCH 29,MAIN SERVICE WATER LOOP,Plant Demand,NODE 391,NODE 392
   Branch,31,MAIN SERVICE WATER LOOP DEMAND BRANCH 30,MAIN SERVICE WATER LOOP,Plant Demand,NODE 393,NODE 394
   Branch,32,MAIN SERVICE WATER LOOP DEMAND BRANCH 31,MAIN SERVICE WATER LOOP,Plant Demand,NODE 395,NODE 396
   Branch,33,MAIN SERVICE WATER LOOP DEMAND BRANCH 32,MAIN SERVICE WATER LOOP,Plant Demand,NODE 397,NODE 398
   Branch,34,MAIN SERVICE WATER LOOP DEMAND BRANCH 33,MAIN SERVICE WATER LOOP,Plant Demand,NODE 399,NODE 400
   Branch,35,MAIN SERVICE WATER LOOP DEMAND BYPASS BRANCH,MAIN SERVICE WATER LOOP,Plant Demand,MAIN SERVICE WATER LOOP DEMAND BYPASS PIPE INLET NODE,MAIN SERVICE WATER LOOP DEMAND BYPASS PIPE OUTLET NODE
   Branch,36,MAIN SERVICE WATER LOOP DEMAND OUTLET BRANCH,MAIN SERVICE WATER LOOP,Plant Demand,NODE 336,NODE 327
! ===============================================================
! <#Supply Air Paths>,<Number of Supply Air Paths>
 #Supply Air Paths,20
! <Supply Air Path>,<Supply Air Path Count>,<Supply Air Path Name>,<AirLoopHVAC Name>
! <#Components on Supply Air Path>,<Number of Components>
! <Supply Air Path Component>,<Component Count>,<Component Type>,<Component Name>,<AirLoopHVAC Name>
! <#Outlet Nodes on Supply Air Path Component>,<Number of Nodes>
! <Supply Air Path Component Nodes>,<Node Count>,<Component Type>,<Component Name>,<Inlet Node Name>,<Outlet Node Name>,<AirLoopHVAC Name>
 Supply Air Path,1,SYS_3_PSZ ALL_ST=AUDIENCE SEATING AREA PERMANENT - AUDITORIUM_FL=BUILDING STORY 1_SCH=C NODE 208 SUPPLY PATH,SYS_3_PSZ ALL_ST=AUDIENCE SEATING AREA PERMANENT - AUDITORIUM_FL=BUILDING STORY 1_SCH=C
   #Components on Supply Air Path,1
   Supply Air Path Component,1,AIRLOOPHVAC:ZONESPLITTER,AIR LOOP HVAC ZONE SPLITTER 12,SYS_3_PSZ ALL_ST=AUDIENCE SEATING AREA PERMANENT - AUDITORIUM_FL=BUILDING STORY 1_SCH=C
     #Outlet Nodes on Supply Air Path Component,1
     Supply Air Path Component Nodes,1,AIRLOOPHVAC:ZONESPLITTER,AIR LOOP HVAC ZONE SPLITTER 12,NODE 208,NODE 458,SYS_3_PSZ ALL_ST=AUDIENCE SEATING AREA PERMANENT - AUDITORIUM_FL=BUILDING STORY 1_SCH=C
! <#Nodes on Supply Air Path>,<Number of Nodes>
! <Supply Air Path Node>,<Node Type>,<Node Count>,<Node Name>,<AirLoopHVAC Name>
#Nodes on Supply Air Path,2
   Supply Air Path Node,Inlet Node,1,NODE 208,SYS_3_PSZ ALL_ST=AUDIENCE SEATING AREA PERMANENT - AUDITORIUM_FL=BUILDING STORY 1_SCH=C
   Supply Air Path Node,Outlet Node,2,NODE 458,SYS_3_PSZ ALL_ST=AUDIENCE SEATING AREA PERMANENT - AUDITORIUM_FL=BUILDING STORY 1_SCH=C
 Supply Air Path,2,SYS_3_PSZ ALL_ST=CLASSROOM/LECTURE HALL/TRAINING ROOM OTHER_FL=BUILDING STORY 1_SCH=D NODE 117 SUPPLY PATH,SYS_3_PSZ ALL_ST=CLASSROOM/LECTURE HALL/TRAINING ROOM OTHER_FL=BUILDING STORY 1_SCH=D
   #Components on Supply Air Path,1
   Supply Air Path Component,1,AIRLOOPHVAC:ZONESPLITTER,AIR LOOP HVAC ZONE SPLITTER 5,SYS_3_PSZ ALL_ST=CLASSROOM/LECTURE HALL/TRAINING ROOM OTHER_FL=BUILDING STORY 1_SCH=D
     #Outlet Nodes on Supply Air Path Component,1
     Supply Air Path Component Nodes,1,AIRLOOPHVAC:ZONESPLITTER,AIR LOOP HVAC ZONE SPLITTER 5,NODE 117,NODE 482,SYS_3_PSZ ALL_ST=CLASSROOM/LECTURE HALL/TRAINING ROOM OTHER_FL=BUILDING STORY 1_SCH=D
! <#Nodes on Supply Air Path>,<Number of Nodes>
! <Supply Air Path Node>,<Node Type>,<Node Count>,<Node Name>,<AirLoopHVAC Name>
#Nodes on Supply Air Path,2
   Supply Air Path Node,Inlet Node,1,NODE 117,SYS_3_PSZ ALL_ST=CLASSROOM/LECTURE HALL/TRAINING ROOM OTHER_FL=BUILDING STORY 1_SCH=D
   Supply Air Path Node,Outlet Node,2,NODE 482,SYS_3_PSZ ALL_ST=CLASSROOM/LECTURE HALL/TRAINING ROOM OTHER_FL=BUILDING STORY 1_SCH=D
 Supply Air Path,3,SYS_3_PSZ ALL_ST=CLASSROOM/LECTURE HALL/TRAINING ROOM OTHER_FL=BUILDING STORY 1_SCH=D 1 NODE 169 SUPPLY PATH,SYS_3_PSZ ALL_ST=CLASSROOM/LECTURE HALL/TRAINING ROOM OTHER_FL=BUILDING STORY 1_SCH=D 1
   #Components on Supply Air Path,1
   Supply Air Path Component,1,AIRLOOPHVAC:ZONESPLITTER,AIR LOOP HVAC ZONE SPLITTER 9,SYS_3_PSZ ALL_ST=CLASSROOM/LECTURE HALL/TRAINING ROOM OTHER_FL=BUILDING STORY 1_SCH=D 1
     #Outlet Nodes on Supply Air Path Component,1
     Supply Air Path Component Nodes,1,AIRLOOPHVAC:ZONESPLITTER,AIR LOOP HVAC ZONE SPLITTER 9,NODE 169,NODE 469,SYS_3_PSZ ALL_ST=CLASSROOM/LECTURE HALL/TRAINING ROOM OTHER_FL=BUILDING STORY 1_SCH=D 1
! <#Nodes on Supply Air Path>,<Number of Nodes>
! <Supply Air Path Node>,<Node Type>,<Node Count>,<Node Name>,<AirLoopHVAC Name>
#Nodes on Supply Air Path,2
   Supply Air Path Node,Inlet Node,1,NODE 169,SYS_3_PSZ ALL_ST=CLASSROOM/LECTURE HALL/TRAINING ROOM OTHER_FL=BUILDING STORY 1_SCH=D 1
   Supply Air Path Node,Outlet Node,2,NODE 469,SYS_3_PSZ ALL_ST=CLASSROOM/LECTURE HALL/TRAINING ROOM OTHER_FL=BUILDING STORY 1_SCH=D 1
 Supply Air Path,4,SYS_3_PSZ ALL_ST=CLASSROOM/LECTURE HALL/TRAINING ROOM OTHER_FL=BUILDING STORY 1_SCH=D 2 NODE 182 SUPPLY PATH,SYS_3_PSZ ALL_ST=CLASSROOM/LECTURE HALL/TRAINING ROOM OTHER_FL=BUILDING STORY 1_SCH=D 2
   #Components on Supply Air Path,1
   Supply Air Path Component,1,AIRLOOPHVAC:ZONESPLITTER,AIR LOOP HVAC ZONE SPLITTER 10,SYS_3_PSZ ALL_ST=CLASSROOM/LECTURE HALL/TRAINING ROOM OTHER_FL=BUILDING STORY 1_SCH=D 2
     #Outlet Nodes on Supply Air Path Component,1
     Supply Air Path Component Nodes,1,AIRLOOPHVAC:ZONESPLITTER,AIR LOOP HVAC ZONE SPLITTER 10,NODE 182,NODE 486,SYS_3_PSZ ALL_ST=CLASSROOM/LECTURE HALL/TRAINING ROOM OTHER_FL=BUILDING STORY 1_SCH=D 2
! <#Nodes on Supply Air Path>,<Number of Nodes>
! <Supply Air Path Node>,<Node Type>,<Node Count>,<Node Name>,<AirLoopHVAC Name>
#Nodes on Supply Air Path,2
   Supply Air Path Node,Inlet Node,1,NODE 182,SYS_3_PSZ ALL_ST=CLASSROOM/LECTURE HALL/TRAINING ROOM OTHER_FL=BUILDING STORY 1_SCH=D 2
   Supply Air Path Node,Outlet Node,2,NODE 486,SYS_3_PSZ ALL_ST=CLASSROOM/LECTURE HALL/TRAINING ROOM OTHER_FL=BUILDING STORY 1_SCH=D 2
 Supply Air Path,5,SYS_3_PSZ ALL_ST=CLASSROOM/LECTURE HALL/TRAINING ROOM OTHER_FL=BUILDING STORY 1_SCH=D 3 NODE 260 SUPPLY PATH,SYS_3_PSZ ALL_ST=CLASSROOM/LECTURE HALL/TRAINING ROOM OTHER_FL=BUILDING STORY 1_SCH=D 3
   #Components on Supply Air Path,1
   Supply Air Path Component,1,AIRLOOPHVAC:ZONESPLITTER,AIR LOOP HVAC ZONE SPLITTER 16,SYS_3_PSZ ALL_ST=CLASSROOM/LECTURE HALL/TRAINING ROOM OTHER_FL=BUILDING STORY 1_SCH=D 3
     #Outlet Nodes on Supply Air Path Component,1
     Supply Air Path Component Nodes,1,AIRLOOPHVAC:ZONESPLITTER,AIR LOOP HVAC ZONE SPLITTER 16,NODE 260,NODE 452,SYS_3_PSZ ALL_ST=CLASSROOM/LECTURE HALL/TRAINING ROOM OTHER_FL=BUILDING STORY 1_SCH=D 3
! <#Nodes on Supply Air Path>,<Number of Nodes>
! <Supply Air Path Node>,<Node Type>,<Node Count>,<Node Name>,<AirLoopHVAC Name>
#Nodes on Supply Air Path,2
   Supply Air Path Node,Inlet Node,1,NODE 260,SYS_3_PSZ ALL_ST=CLASSROOM/LECTURE HALL/TRAINING ROOM OTHER_FL=BUILDING STORY 1_SCH=D 3
   Supply Air Path Node,Outlet Node,2,NODE 452,SYS_3_PSZ ALL_ST=CLASSROOM/LECTURE HALL/TRAINING ROOM OTHER_FL=BUILDING STORY 1_SCH=D 3
 Supply Air Path,6,SYS_3_PSZ ALL_ST=CLASSROOM/LECTURE HALL/TRAINING ROOM OTHER_FL=BUILDING STORY 2_SCH=D NODE 130 SUPPLY PATH,SYS_3_PSZ ALL_ST=CLASSROOM/LECTURE HALL/TRAINING ROOM OTHER_FL=BUILDING STORY 2_SCH=D
   #Components on Supply Air Path,1
   Supply Air Path Component,1,AIRLOOPHVAC:ZONESPLITTER,AIR LOOP HVAC ZONE SPLITTER 6,SYS_3_PSZ ALL_ST=CLASSROOM/LECTURE HALL/TRAINING ROOM OTHER_FL=BUILDING STORY 2_SCH=D
     #Outlet Nodes on Supply Air Path Component,1
     Supply Air Path Component Nodes,1,AIRLOOPHVAC:ZONESPLITTER,AIR LOOP HVAC ZONE SPLITTER 6,NODE 130,NODE 484,SYS_3_PSZ ALL_ST=CLASSROOM/LECTURE HALL/TRAINING ROOM OTHER_FL=BUILDING STORY 2_SCH=D
! <#Nodes on Supply Air Path>,<Number of Nodes>
! <Supply Air Path Node>,<Node Type>,<Node Count>,<Node Name>,<AirLoopHVAC Name>
#Nodes on Supply Air Path,2
   Supply Air Path Node,Inlet Node,1,NODE 130,SYS_3_PSZ ALL_ST=CLASSROOM/LECTURE HALL/TRAINING ROOM OTHER_FL=BUILDING STORY 2_SCH=D
   Supply Air Path Node,Outlet Node,2,NODE 484,SYS_3_PSZ ALL_ST=CLASSROOM/LECTURE HALL/TRAINING ROOM OTHER_FL=BUILDING STORY 2_SCH=D
 Supply Air Path,7,SYS_3_PSZ ALL_ST=CLASSROOM/LECTURE HALL/TRAINING ROOM OTHER_FL=BUILDING STORY 2_SCH=D 1 NODE 143 SUPPLY PATH,SYS_3_PSZ ALL_ST=CLASSROOM/LECTURE HALL/TRAINING ROOM OTHER_FL=BUILDING STORY 2_SCH=D 1
   #Components on Supply Air Path,1
   Supply Air Path Component,1,AIRLOOPHVAC:ZONESPLITTER,AIR LOOP HVAC ZONE SPLITTER 7,SYS_3_PSZ ALL_ST=CLASSROOM/LECTURE HALL/TRAINING ROOM OTHER_FL=BUILDING STORY 2_SCH=D 1
     #Outlet Nodes on Supply Air Path Component,1
     Supply Air Path Component Nodes,1,AIRLOOPHVAC:ZONESPLITTER,AIR LOOP HVAC ZONE SPLITTER 7,NODE 143,NODE 478,SYS_3_PSZ ALL_ST=CLASSROOM/LECTURE HALL/TRAINING ROOM OTHER_FL=BUILDING STORY 2_SCH=D 1
! <#Nodes on Supply Air Path>,<Number of Nodes>
! <Supply Air Path Node>,<Node Type>,<Node Count>,<Node Name>,<AirLoopHVAC Name>
#Nodes on Supply Air Path,2
   Supply Air Path Node,Inlet Node,1,NODE 143,SYS_3_PSZ ALL_ST=CLASSROOM/LECTURE HALL/TRAINING ROOM OTHER_FL=BUILDING STORY 2_SCH=D 1
   Supply Air Path Node,Outlet Node,2,NODE 478,SYS_3_PSZ ALL_ST=CLASSROOM/LECTURE HALL/TRAINING ROOM OTHER_FL=BUILDING STORY 2_SCH=D 1
 Supply Air Path,8,SYS_3_PSZ ALL_ST=CLASSROOM/LECTURE HALL/TRAINING ROOM OTHER_FL=BUILDING STORY 2_SCH=D 2 NODE 156 SUPPLY PATH,SYS_3_PSZ ALL_ST=CLASSROOM/LECTURE HALL/TRAINING ROOM OTHER_FL=BUILDING STORY 2_SCH=D 2
   #Components on Supply Air Path,1
   Supply Air Path Component,1,AIRLOOPHVAC:ZONESPLITTER,AIR LOOP HVAC ZONE SPLITTER 8,SYS_3_PSZ ALL_ST=CLASSROOM/LECTURE HALL/TRAINING ROOM OTHER_FL=BUILDING STORY 2_SCH=D 2
     #Outlet Nodes on Supply Air Path Component,1
     Supply Air Path Component Nodes,1,AIRLOOPHVAC:ZONESPLITTER,AIR LOOP HVAC ZONE SPLITTER 8,NODE 156,NODE 467,SYS_3_PSZ ALL_ST=CLASSROOM/LECTURE HALL/TRAINING ROOM OTHER_FL=BUILDING STORY 2_SCH=D 2
! <#Nodes on Supply Air Path>,<Number of Nodes>
! <Supply Air Path Node>,<Node Type>,<Node Count>,<Node Name>,<AirLoopHVAC Name>
#Nodes on Supply Air Path,2
   Supply Air Path Node,Inlet Node,1,NODE 156,SYS_3_PSZ ALL_ST=CLASSROOM/LECTURE HALL/TRAINING ROOM OTHER_FL=BUILDING STORY 2_SCH=D 2
   Supply Air Path Node,Outlet Node,2,NODE 467,SYS_3_PSZ ALL_ST=CLASSROOM/LECTURE HALL/TRAINING ROOM OTHER_FL=BUILDING STORY 2_SCH=D 2
 Supply Air Path,9,SYS_3_PSZ ALL_ST=CLASSROOM/LECTURE HALL/TRAINING ROOM OTHER_FL=BUILDING STORY 2_SCH=D 3 NODE 195 SUPPLY PATH,SYS_3_PSZ ALL_ST=CLASSROOM/LECTURE HALL/TRAINING ROOM OTHER_FL=BUILDING STORY 2_SCH=D 3
   #Components on Supply Air Path,1
   Supply Air Path Component,1,AIRLOOPHVAC:ZONESPLITTER,AIR LOOP HVAC ZONE SPLITTER 11,SYS_3_PSZ ALL_ST=CLASSROOM/LECTURE HALL/TRAINING ROOM OTHER_FL=BUILDING STORY 2_SCH=D 3
     #Outlet Nodes on Supply Air Path Component,1
     Supply Air Path Component Nodes,1,AIRLOOPHVAC:ZONESPLITTER,AIR LOOP HVAC ZONE SPLITTER 11,NODE 195,NODE 480,SYS_3_PSZ ALL_ST=CLASSROOM/LECTURE HALL/TRAINING ROOM OTHER_FL=BUILDING STORY 2_SCH=D 3
! <#Nodes on Supply Air Path>,<Number of Nodes>
! <Supply Air Path Node>,<Node Type>,<Node Count>,<Node Name>,<AirLoopHVAC Name>
#Nodes on Supply Air Path,2
   Supply Air Path Node,Inlet Node,1,NODE 195,SYS_3_PSZ ALL_ST=CLASSROOM/LECTURE HALL/TRAINING ROOM OTHER_FL=BUILDING STORY 2_SCH=D 3
   Supply Air Path Node,Outlet Node,2,NODE 480,SYS_3_PSZ ALL_ST=CLASSROOM/LECTURE HALL/TRAINING ROOM OTHER_FL=BUILDING STORY 2_SCH=D 3
 Supply Air Path,10,SYS_3_PSZ ALL_ST=CONFERENCE/MEETING/MULTI-PURPOSE ROOM_FL=BUILDING STORY 1_SCH=C NODE 312 SUPPLY PATH,SYS_3_PSZ ALL_ST=CONFERENCE/MEETING/MULTI-PURPOSE ROOM_FL=BUILDING STORY 1_SCH=C
   #Components on Supply Air Path,1
   Supply Air Path Component,1,AIRLOOPHVAC:ZONESPLITTER,AIR LOOP HVAC ZONE SPLITTER 20,SYS_3_PSZ ALL_ST=CONFERENCE/MEETING/MULTI-PURPOSE ROOM_FL=BUILDING STORY 1_SCH=C
     #Outlet Nodes on Supply Air Path Component,1
     Supply Air Path Component Nodes,1,AIRLOOPHVAC:ZONESPLITTER,AIR LOOP HVAC ZONE SPLITTER 20,NODE 312,NODE 444,SYS_3_PSZ ALL_ST=CONFERENCE/MEETING/MULTI-PURPOSE ROOM_FL=BUILDING STORY 1_SCH=C
! <#Nodes on Supply Air Path>,<Number of Nodes>
! <Supply Air Path Node>,<Node Type>,<Node Count>,<Node Name>,<AirLoopHVAC Name>
#Nodes on Supply Air Path,2
   Supply Air Path Node,Inlet Node,1,NODE 312,SYS_3_PSZ ALL_ST=CONFERENCE/MEETING/MULTI-PURPOSE ROOM_FL=BUILDING STORY 1_SCH=C
   Supply Air Path Node,Outlet Node,2,NODE 444,SYS_3_PSZ ALL_ST=CONFERENCE/MEETING/MULTI-PURPOSE ROOM_FL=BUILDING STORY 1_SCH=C
 Supply Air Path,11,SYS_3_PSZ ALL_ST=FOOD PREPARATION AREA_FL=BUILDING STORY 1_SCH=B NODE 286 SUPPLY PATH,SYS_3_PSZ ALL_ST=FOOD PREPARATION AREA_FL=BUILDING STORY 1_SCH=B
   #Components on Supply Air Path,1
   Supply Air Path Component,1,AIRLOOPHVAC:ZONESPLITTER,AIR LOOP HVAC ZONE SPLITTER 18,SYS_3_PSZ ALL_ST=FOOD PREPARATION AREA_FL=BUILDING STORY 1_SCH=B
     #Outlet Nodes on Supply Air Path Component,1
     Supply Air Path Component Nodes,1,AIRLOOPHVAC:ZONESPLITTER,AIR LOOP HVAC ZONE SPLITTER 18,NODE 286,NODE 446,SYS_3_PSZ ALL_ST=FOOD PREPARATION AREA_FL=BUILDING STORY 1_SCH=B
! <#Nodes on Supply Air Path>,<Number of Nodes>
! <Supply Air Path Node>,<Node Type>,<Node Count>,<Node Name>,<AirLoopHVAC Name>
#Nodes on Supply Air Path,2
   Supply Air Path Node,Inlet Node,1,NODE 286,SYS_3_PSZ ALL_ST=FOOD PREPARATION AREA_FL=BUILDING STORY 1_SCH=B
   Supply Air Path Node,Outlet Node,2,NODE 446,SYS_3_PSZ ALL_ST=FOOD PREPARATION AREA_FL=BUILDING STORY 1_SCH=B
 Supply Air Path,12,SYS_3_PSZ ALL_ST=GYMNASIUM/FITNESS CENTRE PLAYING AREA_FL=BUILDING STORY 1_SCH=B NODE 247 SUPPLY PATH,SYS_3_PSZ ALL_ST=GYMNASIUM/FITNESS CENTRE PLAYING AREA_FL=BUILDING STORY 1_SCH=B
   #Components on Supply Air Path,1
   Supply Air Path Component,1,AIRLOOPHVAC:ZONESPLITTER,AIR LOOP HVAC ZONE SPLITTER 15,SYS_3_PSZ ALL_ST=GYMNASIUM/FITNESS CENTRE PLAYING AREA_FL=BUILDING STORY 1_SCH=B
     #Outlet Nodes on Supply Air Path Component,1
     Supply Air Path Component Nodes,1,AIRLOOPHVAC:ZONESPLITTER,AIR LOOP HVAC ZONE SPLITTER 15,NODE 247,NODE 450,SYS_3_PSZ ALL_ST=GYMNASIUM/FITNESS CENTRE PLAYING AREA_FL=BUILDING STORY 1_SCH=B
! <#Nodes on Supply Air Path>,<Number of Nodes>
! <Supply Air Path Node>,<Node Type>,<Node Count>,<Node Name>,<AirLoopHVAC Name>
#Nodes on Supply Air Path,2
   Supply Air Path Node,Inlet Node,1,NODE 247,SYS_3_PSZ ALL_ST=GYMNASIUM/FITNESS CENTRE PLAYING AREA_FL=BUILDING STORY 1_SCH=B
   Supply Air Path Node,Outlet Node,2,NODE 450,SYS_3_PSZ ALL_ST=GYMNASIUM/FITNESS CENTRE PLAYING AREA_FL=BUILDING STORY 1_SCH=B
 Supply Air Path,13,SYS_3_PSZ ALL_ST=GYMNASIUM/FITNESS CENTRE PLAYING AREA_FL=BUILDING STORY 1_SCH=B 1 NODE 273 SUPPLY PATH,SYS_3_PSZ ALL_ST=GYMNASIUM/FITNESS CENTRE PLAYING AREA_FL=BUILDING STORY 1_SCH=B 1
   #Components on Supply Air Path,1
   Supply Air Path Component,1,AIRLOOPHVAC:ZONESPLITTER,AIR LOOP HVAC ZONE SPLITTER 17,SYS_3_PSZ ALL_ST=GYMNASIUM/FITNESS CENTRE PLAYING AREA_FL=BUILDING STORY 1_SCH=B 1
     #Outlet Nodes on Supply Air Path Component,1
     Supply Air Path Component Nodes,1,AIRLOOPHVAC:ZONESPLITTER,AIR LOOP HVAC ZONE SPLITTER 17,NODE 273,NODE 448,SYS_3_PSZ ALL_ST=GYMNASIUM/FITNESS CENTRE PLAYING AREA_FL=BUILDING STORY 1_SCH=B 1
! <#Nodes on Supply Air Path>,<Number of Nodes>
! <Supply Air Path Node>,<Node Type>,<Node Count>,<Node Name>,<AirLoopHVAC Name>
#Nodes on Supply Air Path,2
   Supply Air Path Node,Inlet Node,1,NODE 273,SYS_3_PSZ ALL_ST=GYMNASIUM/FITNESS CENTRE PLAYING AREA_FL=BUILDING STORY 1_SCH=B 1
   Supply Air Path Node,Outlet Node,2,NODE 448,SYS_3_PSZ ALL_ST=GYMNASIUM/FITNESS CENTRE PLAYING AREA_FL=BUILDING STORY 1_SCH=B 1
 Supply Air Path,14,SYS_3_PSZ ALL_ST=LIBRARY READING AREA_FL=BUILDING STORY 2_SCH=C NODE 221 SUPPLY PATH,SYS_3_PSZ ALL_ST=LIBRARY READING AREA_FL=BUILDING STORY 2_SCH=C
   #Components on Supply Air Path,1
   Supply Air Path Component,1,AIRLOOPHVAC:ZONESPLITTER,AIR LOOP HVAC ZONE SPLITTER 13,SYS_3_PSZ ALL_ST=LIBRARY READING AREA_FL=BUILDING STORY 2_SCH=C
     #Outlet Nodes on Supply Air Path Component,1
     Supply Air Path Component Nodes,1,AIRLOOPHVAC:ZONESPLITTER,AIR LOOP HVAC ZONE SPLITTER 13,NODE 221,NODE 456,SYS_3_PSZ ALL_ST=LIBRARY READING AREA_FL=BUILDING STORY 2_SCH=C
! <#Nodes on Supply Air Path>,<Number of Nodes>
! <Supply Air Path Node>,<Node Type>,<Node Count>,<Node Name>,<AirLoopHVAC Name>
#Nodes on Supply Air Path,2
   Supply Air Path Node,Inlet Node,1,NODE 221,SYS_3_PSZ ALL_ST=LIBRARY READING AREA_FL=BUILDING STORY 2_SCH=C
   Supply Air Path Node,Outlet Node,2,NODE 456,SYS_3_PSZ ALL_ST=LIBRARY READING AREA_FL=BUILDING STORY 2_SCH=C
 Supply Air Path,15,SYS_3_PSZ ALL_ST=LOBBY - OTHER_FL=BUILDING STORY 1_SCH=C NODE 91 SUPPLY PATH,SYS_3_PSZ ALL_ST=LOBBY - OTHER_FL=BUILDING STORY 1_SCH=C
   #Components on Supply Air Path,1
   Supply Air Path Component,1,AIRLOOPHVAC:ZONESPLITTER,AIR LOOP HVAC ZONE SPLITTER 3,SYS_3_PSZ ALL_ST=LOBBY - OTHER_FL=BUILDING STORY 1_SCH=C
     #Outlet Nodes on Supply Air Path Component,1
     Supply Air Path Component Nodes,1,AIRLOOPHVAC:ZONESPLITTER,AIR LOOP HVAC ZONE SPLITTER 3,NODE 91,NODE 474,SYS_3_PSZ ALL_ST=LOBBY - OTHER_FL=BUILDING STORY 1_SCH=C
! <#Nodes on Supply Air Path>,<Number of Nodes>
! <Supply Air Path Node>,<Node Type>,<Node Count>,<Node Name>,<AirLoopHVAC Name>
#Nodes on Supply Air Path,2
   Supply Air Path Node,Inlet Node,1,NODE 91,SYS_3_PSZ ALL_ST=LOBBY - OTHER_FL=BUILDING STORY 1_SCH=C
   Supply Air Path Node,Outlet Node,2,NODE 474,SYS_3_PSZ ALL_ST=LOBBY - OTHER_FL=BUILDING STORY 1_SCH=C
 Supply Air Path,16,SYS_3_PSZ ALL_ST=LOBBY - OTHER_FL=BUILDING STORY 2_SCH=C NODE 104 SUPPLY PATH,SYS_3_PSZ ALL_ST=LOBBY - OTHER_FL=BUILDING STORY 2_SCH=C
   #Components on Supply Air Path,1
   Supply Air Path Component,1,AIRLOOPHVAC:ZONESPLITTER,AIR LOOP HVAC ZONE SPLITTER 4,SYS_3_PSZ ALL_ST=LOBBY - OTHER_FL=BUILDING STORY 2_SCH=C
     #Outlet Nodes on Supply Air Path Component,1
     Supply Air Path Component Nodes,1,AIRLOOPHVAC:ZONESPLITTER,AIR LOOP HVAC ZONE SPLITTER 4,NODE 104,NODE 476,SYS_3_PSZ ALL_ST=LOBBY - OTHER_FL=BUILDING STORY 2_SCH=C
! <#Nodes on Supply Air Path>,<Number of Nodes>
! <Supply Air Path Node>,<Node Type>,<Node Count>,<Node Name>,<AirLoopHVAC Name>
#Nodes on Supply Air Path,2
   Supply Air Path Node,Inlet Node,1,NODE 104,SYS_3_PSZ ALL_ST=LOBBY - OTHER_FL=BUILDING STORY 2_SCH=C
   Supply Air Path Node,Outlet Node,2,NODE 476,SYS_3_PSZ ALL_ST=LOBBY - OTHER_FL=BUILDING STORY 2_SCH=C
 Supply Air Path,17,SYS_3_PSZ ALL_ST=OFFICE ENCLOSED <= 25 M2_FL=BUILDING STORY 1_SCH=A NODE 234 SUPPLY PATH,SYS_3_PSZ ALL_ST=OFFICE ENCLOSED <= 25 M2_FL=BUILDING STORY 1_SCH=A
   #Components on Supply Air Path,1
   Supply Air Path Component,1,AIRLOOPHVAC:ZONESPLITTER,AIR LOOP HVAC ZONE SPLITTER 14,SYS_3_PSZ ALL_ST=OFFICE ENCLOSED <= 25 M2_FL=BUILDING STORY 1_SCH=A
     #Outlet Nodes on Supply Air Path Component,1
     Supply Air Path Component Nodes,1,AIRLOOPHVAC:ZONESPLITTER,AIR LOOP HVAC ZONE SPLITTER 14,NODE 234,NODE 454,SYS_3_PSZ ALL_ST=OFFICE ENCLOSED <= 25 M2_FL=BUILDING STORY 1_SCH=A
! <#Nodes on Supply Air Path>,<Number of Nodes>
! <Supply Air Path Node>,<Node Type>,<Node Count>,<Node Name>,<AirLoopHVAC Name>
#Nodes on Supply Air Path,2
   Supply Air Path Node,Inlet Node,1,NODE 234,SYS_3_PSZ ALL_ST=OFFICE ENCLOSED <= 25 M2_FL=BUILDING STORY 1_SCH=A
   Supply Air Path Node,Outlet Node,2,NODE 454,SYS_3_PSZ ALL_ST=OFFICE ENCLOSED <= 25 M2_FL=BUILDING STORY 1_SCH=A
 Supply Air Path,18,SYS_3_PSZ ALL_ST=OFFICE ENCLOSED <= 25 M2_FL=BUILDING STORY 2_SCH=A NODE 299 SUPPLY PATH,SYS_3_PSZ ALL_ST=OFFICE ENCLOSED <= 25 M2_FL=BUILDING STORY 2_SCH=A
   #Components on Supply Air Path,1
   Supply Air Path Component,1,AIRLOOPHVAC:ZONESPLITTER,AIR LOOP HVAC ZONE SPLITTER 19,SYS_3_PSZ ALL_ST=OFFICE ENCLOSED <= 25 M2_FL=BUILDING STORY 2_SCH=A
     #Outlet Nodes on Supply Air Path Component,1
     Supply Air Path Component Nodes,1,AIRLOOPHVAC:ZONESPLITTER,AIR LOOP HVAC ZONE SPLITTER 19,NODE 299,NODE 442,SYS_3_PSZ ALL_ST=OFFICE ENCLOSED <= 25 M2_FL=BUILDING STORY 2_SCH=A
! <#Nodes on Supply Air Path>,<Number of Nodes>
! <Supply Air Path Node>,<Node Type>,<Node Count>,<Node Name>,<AirLoopHVAC Name>
#Nodes on Supply Air Path,2
   Supply Air Path Node,Inlet Node,1,NODE 299,SYS_3_PSZ ALL_ST=OFFICE ENCLOSED <= 25 M2_FL=BUILDING STORY 2_SCH=A
   Supply Air Path Node,Outlet Node,2,NODE 442,SYS_3_PSZ ALL_ST=OFFICE ENCLOSED <= 25 M2_FL=BUILDING STORY 2_SCH=A
 Supply Air Path,19,SYS_4_PSZ_WET_ST=WASHROOM - OTHER-SCH-D_FL=BUILDING STORY 1_SCHD NODE 24 SUPPLY PATH,SYS_4_PSZ_WET_ST=WASHROOM - OTHER-SCH-D_FL=BUILDING STORY 1_SCHD
   #Components on Supply Air Path,1
   Supply Air Path Component,1,AIRLOOPHVAC:ZONESPLITTER,AIR LOOP HVAC ZONE SPLITTER 1,SYS_4_PSZ_WET_ST=WASHROOM - OTHER-SCH-D_FL=BUILDING STORY 1_SCHD
     #Outlet Nodes on Supply Air Path Component,2
     Supply Air Path Component Nodes,1,AIRLOOPHVAC:ZONESPLITTER,AIR LOOP HVAC ZONE SPLITTER 1,NODE 24,NODE 471,SYS_4_PSZ_WET_ST=WASHROOM - OTHER-SCH-D_FL=BUILDING STORY 1_SCHD
     Supply Air Path Component Nodes,2,AIRLOOPHVAC:ZONESPLITTER,AIR LOOP HVAC ZONE SPLITTER 1,NODE 24,NODE 472,SYS_4_PSZ_WET_ST=WASHROOM - OTHER-SCH-D_FL=BUILDING STORY 1_SCHD
! <#Nodes on Supply Air Path>,<Number of Nodes>
! <Supply Air Path Node>,<Node Type>,<Node Count>,<Node Name>,<AirLoopHVAC Name>
#Nodes on Supply Air Path,3
   Supply Air Path Node,Inlet Node,1,NODE 24,SYS_4_PSZ_WET_ST=WASHROOM - OTHER-SCH-D_FL=BUILDING STORY 1_SCHD
   Supply Air Path Node,Outlet Node,2,NODE 471,SYS_4_PSZ_WET_ST=WASHROOM - OTHER-SCH-D_FL=BUILDING STORY 1_SCHD
   Supply Air Path Node,Outlet Node,3,NODE 472,SYS_4_PSZ_WET_ST=WASHROOM - OTHER-SCH-D_FL=BUILDING STORY 1_SCHD
 Supply Air Path,20,SYS_4_PSZ_WILD_ST=CORRIDOR/TRANSITION AREA OTHER-SCH-D_FL=BUILDING STORY 2_SCH=D NODE 48 SUPPLY PATH,SYS_4_PSZ_WILD_ST=CORRIDOR/TRANSITION AREA OTHER-SCH-D_FL=BUILDING STORY 2_SCH=D
   #Components on Supply Air Path,1
   Supply Air Path Component,1,AIRLOOPHVAC:ZONESPLITTER,AIR LOOP HVAC ZONE SPLITTER 2,SYS_4_PSZ_WILD_ST=CORRIDOR/TRANSITION AREA OTHER-SCH-D_FL=BUILDING STORY 2_SCH=D
     #Outlet Nodes on Supply Air Path Component,6
     Supply Air Path Component Nodes,1,AIRLOOPHVAC:ZONESPLITTER,AIR LOOP HVAC ZONE SPLITTER 2,NODE 48,NODE 460,SYS_4_PSZ_WILD_ST=CORRIDOR/TRANSITION AREA OTHER-SCH-D_FL=BUILDING STORY 2_SCH=D
     Supply Air Path Component Nodes,2,AIRLOOPHVAC:ZONESPLITTER,AIR LOOP HVAC ZONE SPLITTER 2,NODE 48,NODE 461,SYS_4_PSZ_WILD_ST=CORRIDOR/TRANSITION AREA OTHER-SCH-D_FL=BUILDING STORY 2_SCH=D
     Supply Air Path Component Nodes,3,AIRLOOPHVAC:ZONESPLITTER,AIR LOOP HVAC ZONE SPLITTER 2,NODE 48,NODE 462,SYS_4_PSZ_WILD_ST=CORRIDOR/TRANSITION AREA OTHER-SCH-D_FL=BUILDING STORY 2_SCH=D
     Supply Air Path Component Nodes,4,AIRLOOPHVAC:ZONESPLITTER,AIR LOOP HVAC ZONE SPLITTER 2,NODE 48,NODE 463,SYS_4_PSZ_WILD_ST=CORRIDOR/TRANSITION AREA OTHER-SCH-D_FL=BUILDING STORY 2_SCH=D
     Supply Air Path Component Nodes,5,AIRLOOPHVAC:ZONESPLITTER,AIR LOOP HVAC ZONE SPLITTER 2,NODE 48,NODE 464,SYS_4_PSZ_WILD_ST=CORRIDOR/TRANSITION AREA OTHER-SCH-D_FL=BUILDING STORY 2_SCH=D
     Supply Air Path Component Nodes,6,AIRLOOPHVAC:ZONESPLITTER,AIR LOOP HVAC ZONE SPLITTER 2,NODE 48,NODE 465,SYS_4_PSZ_WILD_ST=CORRIDOR/TRANSITION AREA OTHER-SCH-D_FL=BUILDING STORY 2_SCH=D
! <#Nodes on Supply Air Path>,<Number of Nodes>
! <Supply Air Path Node>,<Node Type>,<Node Count>,<Node Name>,<AirLoopHVAC Name>
#Nodes on Supply Air Path,7
   Supply Air Path Node,Inlet Node,1,NODE 48,SYS_4_PSZ_WILD_ST=CORRIDOR/TRANSITION AREA OTHER-SCH-D_FL=BUILDING STORY 2_SCH=D
   Supply Air Path Node,Outlet Node,2,NODE 460,SYS_4_PSZ_WILD_ST=CORRIDOR/TRANSITION AREA OTHER-SCH-D_FL=BUILDING STORY 2_SCH=D
   Supply Air Path Node,Outlet Node,3,NODE 461,SYS_4_PSZ_WILD_ST=CORRIDOR/TRANSITION AREA OTHER-SCH-D_FL=BUILDING STORY 2_SCH=D
   Supply Air Path Node,Outlet Node,4,NODE 462,SYS_4_PSZ_WILD_ST=CORRIDOR/TRANSITION AREA OTHER-SCH-D_FL=BUILDING STORY 2_SCH=D
   Supply Air Path Node,Outlet Node,5,NODE 463,SYS_4_PSZ_WILD_ST=CORRIDOR/TRANSITION AREA OTHER-SCH-D_FL=BUILDING STORY 2_SCH=D
   Supply Air Path Node,Outlet Node,6,NODE 464,SYS_4_PSZ_WILD_ST=CORRIDOR/TRANSITION AREA OTHER-SCH-D_FL=BUILDING STORY 2_SCH=D
   Supply Air Path Node,Outlet Node,7,NODE 465,SYS_4_PSZ_WILD_ST=CORRIDOR/TRANSITION AREA OTHER-SCH-D_FL=BUILDING STORY 2_SCH=D
! ===============================================================
! <#Return Air Paths>,<Number of Return Air Paths>
 #Return Air Paths,20
! <Return Air Path>,<Return Air Path Count>,<Return Air Path Name>,<AirLoopHVAC Name>
! <#Components on Return Air Path>,<Number of Components>
! <Return Air Path Component>,<Component Count>,<Component Type>,<Component Name>,<AirLoopHVAC Name>
! <#Inlet Nodes on Return Air Path Component>,<Number of Nodes>
! <Return Air Path Component Nodes>,<Node Count>,<Component Type>,<Component Name>,<Inlet Node Name>,<Outlet Node Name>,<AirLoopHVAC Name>
 Return Air Path,1,SYS_3_PSZ ALL_ST=AUDIENCE SEATING AREA PERMANENT - AUDITORIUM_FL=BUILDING STORY 1_SCH=C RETURN PATH,SYS_3_PSZ ALL_ST=AUDIENCE SEATING AREA PERMANENT - AUDITORIUM_FL=BUILDING STORY 1_SCH=C
   #Components on Return Air Path,1
   Return Air Path Component,1,AIRLOOPHVAC:ZONEMIXER,AIR LOOP HVAC ZONE MIXER 12,SYS_3_PSZ ALL_ST=AUDIENCE SEATING AREA PERMANENT - AUDITORIUM_FL=BUILDING STORY 1_SCH=C
     #Inlet Nodes on Return Air Path Component,1
     Return Air Path Component Nodes,1,AIRLOOPHVAC:ZONEMIXER,AIR LOOP HVAC ZONE MIXER 12,NODE 216,NODE 209,SYS_3_PSZ ALL_ST=AUDIENCE SEATING AREA PERMANENT - AUDITORIUM_FL=BUILDING STORY 1_SCH=C
! <#Nodes on Return Air Path>,<Number of Nodes>
! <Return Air Path Node>,<Node Type>,<Node Count>,<Node Name>,<AirLoopHVAC Name>
   #Nodes on Return Air Path,2
   Return Air Path Node,Outlet Node,1,NODE 209,SYS_3_PSZ ALL_ST=AUDIENCE SEATING AREA PERMANENT - AUDITORIUM_FL=BUILDING STORY 1_SCH=C
   Return Air Path Node,Inlet Node,2,NODE 216,SYS_3_PSZ ALL_ST=AUDIENCE SEATING AREA PERMANENT - AUDITORIUM_FL=BUILDING STORY 1_SCH=C
 Return Air Path,2,SYS_3_PSZ ALL_ST=CLASSROOM/LECTURE HALL/TRAINING ROOM OTHER_FL=BUILDING STORY 1_SCH=D RETURN PATH,SYS_3_PSZ ALL_ST=CLASSROOM/LECTURE HALL/TRAINING ROOM OTHER_FL=BUILDING STORY 1_SCH=D
   #Components on Return Air Path,1
   Return Air Path Component,1,AIRLOOPHVAC:ZONEMIXER,AIR LOOP HVAC ZONE MIXER 5,SYS_3_PSZ ALL_ST=CLASSROOM/LECTURE HALL/TRAINING ROOM OTHER_FL=BUILDING STORY 1_SCH=D
     #Inlet Nodes on Return Air Path Component,1
     Return Air Path Component Nodes,1,AIRLOOPHVAC:ZONEMIXER,AIR LOOP HVAC ZONE MIXER 5,NODE 125,NODE 118,SYS_3_PSZ ALL_ST=CLASSROOM/LECTURE HALL/TRAINING ROOM OTHER_FL=BUILDING STORY 1_SCH=D
! <#Nodes on Return Air Path>,<Number of Nodes>
! <Return Air Path Node>,<Node Type>,<Node Count>,<Node Name>,<AirLoopHVAC Name>
   #Nodes on Return Air Path,2
   Return Air Path Node,Outlet Node,1,NODE 118,SYS_3_PSZ ALL_ST=CLASSROOM/LECTURE HALL/TRAINING ROOM OTHER_FL=BUILDING STORY 1_SCH=D
   Return Air Path Node,Inlet Node,2,NODE 125,SYS_3_PSZ ALL_ST=CLASSROOM/LECTURE HALL/TRAINING ROOM OTHER_FL=BUILDING STORY 1_SCH=D
 Return Air Path,3,SYS_3_PSZ ALL_ST=CLASSROOM/LECTURE HALL/TRAINING ROOM OTHER_FL=BUILDING STORY 1_SCH=D 1 RETURN PATH,SYS_3_PSZ ALL_ST=CLASSROOM/LECTURE HALL/TRAINING ROOM OTHER_FL=BUILDING STORY 1_SCH=D 1
   #Components on Return Air Path,1
   Return Air Path Component,1,AIRLOOPHVAC:ZONEMIXER,AIR LOOP HVAC ZONE MIXER 9,SYS_3_PSZ ALL_ST=CLASSROOM/LECTURE HALL/TRAINING ROOM OTHER_FL=BUILDING STORY 1_SCH=D 1
     #Inlet Nodes on Return Air Path Component,1
     Return Air Path Component Nodes,1,AIRLOOPHVAC:ZONEMIXER,AIR LOOP HVAC ZONE MIXER 9,NODE 177,NODE 170,SYS_3_PSZ ALL_ST=CLASSROOM/LECTURE HALL/TRAINING ROOM OTHER_FL=BUILDING STORY 1_SCH=D 1
! <#Nodes on Return Air Path>,<Number of Nodes>
! <Return Air Path Node>,<Node Type>,<Node Count>,<Node Name>,<AirLoopHVAC Name>
   #Nodes on Return Air Path,2
   Return Air Path Node,Outlet Node,1,NODE 170,SYS_3_PSZ ALL_ST=CLASSROOM/LECTURE HALL/TRAINING ROOM OTHER_FL=BUILDING STORY 1_SCH=D 1
   Return Air Path Node,Inlet Node,2,NODE 177,SYS_3_PSZ ALL_ST=CLASSROOM/LECTURE HALL/TRAINING ROOM OTHER_FL=BUILDING STORY 1_SCH=D 1
 Return Air Path,4,SYS_3_PSZ ALL_ST=CLASSROOM/LECTURE HALL/TRAINING ROOM OTHER_FL=BUILDING STORY 1_SCH=D 2 RETURN PATH,SYS_3_PSZ ALL_ST=CLASSROOM/LECTURE HALL/TRAINING ROOM OTHER_FL=BUILDING STORY 1_SCH=D 2
   #Components on Return Air Path,1
   Return Air Path Component,1,AIRLOOPHVAC:ZONEMIXER,AIR LOOP HVAC ZONE MIXER 10,SYS_3_PSZ ALL_ST=CLASSROOM/LECTURE HALL/TRAINING ROOM OTHER_FL=BUILDING STORY 1_SCH=D 2
     #Inlet Nodes on Return Air Path Component,1
     Return Air Path Component Nodes,1,AIRLOOPHVAC:ZONEMIXER,AIR LOOP HVAC ZONE MIXER 10,NODE 190,NODE 183,SYS_3_PSZ ALL_ST=CLASSROOM/LECTURE HALL/TRAINING ROOM OTHER_FL=BUILDING STORY 1_SCH=D 2
! <#Nodes on Return Air Path>,<Number of Nodes>
! <Return Air Path Node>,<Node Type>,<Node Count>,<Node Name>,<AirLoopHVAC Name>
   #Nodes on Return Air Path,2
   Return Air Path Node,Outlet Node,1,NODE 183,SYS_3_PSZ ALL_ST=CLASSROOM/LECTURE HALL/TRAINING ROOM OTHER_FL=BUILDING STORY 1_SCH=D 2
   Return Air Path Node,Inlet Node,2,NODE 190,SYS_3_PSZ ALL_ST=CLASSROOM/LECTURE HALL/TRAINING ROOM OTHER_FL=BUILDING STORY 1_SCH=D 2
 Return Air Path,5,SYS_3_PSZ ALL_ST=CLASSROOM/LECTURE HALL/TRAINING ROOM OTHER_FL=BUILDING STORY 1_SCH=D 3 RETURN PATH,SYS_3_PSZ ALL_ST=CLASSROOM/LECTURE HALL/TRAINING ROOM OTHER_FL=BUILDING STORY 1_SCH=D 3
   #Components on Return Air Path,1
   Return Air Path Component,1,AIRLOOPHVAC:ZONEMIXER,AIR LOOP HVAC ZONE MIXER 16,SYS_3_PSZ ALL_ST=CLASSROOM/LECTURE HALL/TRAINING ROOM OTHER_FL=BUILDING STORY 1_SCH=D 3
     #Inlet Nodes on Return Air Path Component,1
     Return Air Path Component Nodes,1,AIRLOOPHVAC:ZONEMIXER,AIR LOOP HVAC ZONE MIXER 16,NODE 268,NODE 261,SYS_3_PSZ ALL_ST=CLASSROOM/LECTURE HALL/TRAINING ROOM OTHER_FL=BUILDING STORY 1_SCH=D 3
! <#Nodes on Return Air Path>,<Number of Nodes>
! <Return Air Path Node>,<Node Type>,<Node Count>,<Node Name>,<AirLoopHVAC Name>
   #Nodes on Return Air Path,2
   Return Air Path Node,Outlet Node,1,NODE 261,SYS_3_PSZ ALL_ST=CLASSROOM/LECTURE HALL/TRAINING ROOM OTHER_FL=BUILDING STORY 1_SCH=D 3
   Return Air Path Node,Inlet Node,2,NODE 268,SYS_3_PSZ ALL_ST=CLASSROOM/LECTURE HALL/TRAINING ROOM OTHER_FL=BUILDING STORY 1_SCH=D 3
 Return Air Path,6,SYS_3_PSZ ALL_ST=CLASSROOM/LECTURE HALL/TRAINING ROOM OTHER_FL=BUILDING STORY 2_SCH=D RETURN PATH,SYS_3_PSZ ALL_ST=CLASSROOM/LECTURE HALL/TRAINING ROOM OTHER_FL=BUILDING STORY 2_SCH=D
   #Components on Return Air Path,1
   Return Air Path Component,1,AIRLOOPHVAC:ZONEMIXER,AIR LOOP HVAC ZONE MIXER 6,SYS_3_PSZ ALL_ST=CLASSROOM/LECTURE HALL/TRAINING ROOM OTHER_FL=BUILDING STORY 2_SCH=D
     #Inlet Nodes on Return Air Path Component,1
     Return Air Path Component Nodes,1,AIRLOOPHVAC:ZONEMIXER,AIR LOOP HVAC ZONE MIXER 6,NODE 138,NODE 131,SYS_3_PSZ ALL_ST=CLASSROOM/LECTURE HALL/TRAINING ROOM OTHER_FL=BUILDING STORY 2_SCH=D
! <#Nodes on Return Air Path>,<Number of Nodes>
! <Return Air Path Node>,<Node Type>,<Node Count>,<Node Name>,<AirLoopHVAC Name>
   #Nodes on Return Air Path,2
   Return Air Path Node,Outlet Node,1,NODE 131,SYS_3_PSZ ALL_ST=CLASSROOM/LECTURE HALL/TRAINING ROOM OTHER_FL=BUILDING STORY 2_SCH=D
   Return Air Path Node,Inlet Node,2,NODE 138,SYS_3_PSZ ALL_ST=CLASSROOM/LECTURE HALL/TRAINING ROOM OTHER_FL=BUILDING STORY 2_SCH=D
 Return Air Path,7,SYS_3_PSZ ALL_ST=CLASSROOM/LECTURE HALL/TRAINING ROOM OTHER_FL=BUILDING STORY 2_SCH=D 1 RETURN PATH,SYS_3_PSZ ALL_ST=CLASSROOM/LECTURE HALL/TRAINING ROOM OTHER_FL=BUILDING STORY 2_SCH=D 1
   #Components on Return Air Path,1
   Return Air Path Component,1,AIRLOOPHVAC:ZONEMIXER,AIR LOOP HVAC ZONE MIXER 7,SYS_3_PSZ ALL_ST=CLASSROOM/LECTURE HALL/TRAINING ROOM OTHER_FL=BUILDING STORY 2_SCH=D 1
     #Inlet Nodes on Return Air Path Component,1
     Return Air Path Component Nodes,1,AIRLOOPHVAC:ZONEMIXER,AIR LOOP HVAC ZONE MIXER 7,NODE 151,NODE 144,SYS_3_PSZ ALL_ST=CLASSROOM/LECTURE HALL/TRAINING ROOM OTHER_FL=BUILDING STORY 2_SCH=D 1
! <#Nodes on Return Air Path>,<Number of Nodes>
! <Return Air Path Node>,<Node Type>,<Node Count>,<Node Name>,<AirLoopHVAC Name>
   #Nodes on Return Air Path,2
   Return Air Path Node,Outlet Node,1,NODE 144,SYS_3_PSZ ALL_ST=CLASSROOM/LECTURE HALL/TRAINING ROOM OTHER_FL=BUILDING STORY 2_SCH=D 1
   Return Air Path Node,Inlet Node,2,NODE 151,SYS_3_PSZ ALL_ST=CLASSROOM/LECTURE HALL/TRAINING ROOM OTHER_FL=BUILDING STORY 2_SCH=D 1
 Return Air Path,8,SYS_3_PSZ ALL_ST=CLASSROOM/LECTURE HALL/TRAINING ROOM OTHER_FL=BUILDING STORY 2_SCH=D 2 RETURN PATH,SYS_3_PSZ ALL_ST=CLASSROOM/LECTURE HALL/TRAINING ROOM OTHER_FL=BUILDING STORY 2_SCH=D 2
   #Components on Return Air Path,1
   Return Air Path Component,1,AIRLOOPHVAC:ZONEMIXER,AIR LOOP HVAC ZONE MIXER 8,SYS_3_PSZ ALL_ST=CLASSROOM/LECTURE HALL/TRAINING ROOM OTHER_FL=BUILDING STORY 2_SCH=D 2
     #Inlet Nodes on Return Air Path Component,1
     Return Air Path Component Nodes,1,AIRLOOPHVAC:ZONEMIXER,AIR LOOP HVAC ZONE MIXER 8,NODE 164,NODE 157,SYS_3_PSZ ALL_ST=CLASSROOM/LECTURE HALL/TRAINING ROOM OTHER_FL=BUILDING STORY 2_SCH=D 2
! <#Nodes on Return Air Path>,<Number of Nodes>
! <Return Air Path Node>,<Node Type>,<Node Count>,<Node Name>,<AirLoopHVAC Name>
   #Nodes on Return Air Path,2
   Return Air Path Node,Outlet Node,1,NODE 157,SYS_3_PSZ ALL_ST=CLASSROOM/LECTURE HALL/TRAINING ROOM OTHER_FL=BUILDING STORY 2_SCH=D 2
   Return Air Path Node,Inlet Node,2,NODE 164,SYS_3_PSZ ALL_ST=CLASSROOM/LECTURE HALL/TRAINING ROOM OTHER_FL=BUILDING STORY 2_SCH=D 2
 Return Air Path,9,SYS_3_PSZ ALL_ST=CLASSROOM/LECTURE HALL/TRAINING ROOM OTHER_FL=BUILDING STORY 2_SCH=D 3 RETURN PATH,SYS_3_PSZ ALL_ST=CLASSROOM/LECTURE HALL/TRAINING ROOM OTHER_FL=BUILDING STORY 2_SCH=D 3
   #Components on Return Air Path,1
   Return Air Path Component,1,AIRLOOPHVAC:ZONEMIXER,AIR LOOP HVAC ZONE MIXER 11,SYS_3_PSZ ALL_ST=CLASSROOM/LECTURE HALL/TRAINING ROOM OTHER_FL=BUILDING STORY 2_SCH=D 3
     #Inlet Nodes on Return Air Path Component,1
     Return Air Path Component Nodes,1,AIRLOOPHVAC:ZONEMIXER,AIR LOOP HVAC ZONE MIXER 11,NODE 203,NODE 196,SYS_3_PSZ ALL_ST=CLASSROOM/LECTURE HALL/TRAINING ROOM OTHER_FL=BUILDING STORY 2_SCH=D 3
! <#Nodes on Return Air Path>,<Number of Nodes>
! <Return Air Path Node>,<Node Type>,<Node Count>,<Node Name>,<AirLoopHVAC Name>
   #Nodes on Return Air Path,2
   Return Air Path Node,Outlet Node,1,NODE 196,SYS_3_PSZ ALL_ST=CLASSROOM/LECTURE HALL/TRAINING ROOM OTHER_FL=BUILDING STORY 2_SCH=D 3
   Return Air Path Node,Inlet Node,2,NODE 203,SYS_3_PSZ ALL_ST=CLASSROOM/LECTURE HALL/TRAINING ROOM OTHER_FL=BUILDING STORY 2_SCH=D 3
 Return Air Path,10,SYS_3_PSZ ALL_ST=CONFERENCE/MEETING/MULTI-PURPOSE ROOM_FL=BUILDING STORY 1_SCH=C RETURN PATH,SYS_3_PSZ ALL_ST=CONFERENCE/MEETING/MULTI-PURPOSE ROOM_FL=BUILDING STORY 1_SCH=C
   #Components on Return Air Path,1
   Return Air Path Component,1,AIRLOOPHVAC:ZONEMIXER,AIR LOOP HVAC ZONE MIXER 20,SYS_3_PSZ ALL_ST=CONFERENCE/MEETING/MULTI-PURPOSE ROOM_FL=BUILDING STORY 1_SCH=C
     #Inlet Nodes on Return Air Path Component,1
     Return Air Path Component Nodes,1,AIRLOOPHVAC:ZONEMIXER,AIR LOOP HVAC ZONE MIXER 20,NODE 320,NODE 313,SYS_3_PSZ ALL_ST=CONFERENCE/MEETING/MULTI-PURPOSE ROOM_FL=BUILDING STORY 1_SCH=C
! <#Nodes on Return Air Path>,<Number of Nodes>
! <Return Air Path Node>,<Node Type>,<Node Count>,<Node Name>,<AirLoopHVAC Name>
   #Nodes on Return Air Path,2
   Return Air Path Node,Outlet Node,1,NODE 313,SYS_3_PSZ ALL_ST=CONFERENCE/MEETING/MULTI-PURPOSE ROOM_FL=BUILDING STORY 1_SCH=C
   Return Air Path Node,Inlet Node,2,NODE 320,SYS_3_PSZ ALL_ST=CONFERENCE/MEETING/MULTI-PURPOSE ROOM_FL=BUILDING STORY 1_SCH=C
 Return Air Path,11,SYS_3_PSZ ALL_ST=FOOD PREPARATION AREA_FL=BUILDING STORY 1_SCH=B RETURN PATH,SYS_3_PSZ ALL_ST=FOOD PREPARATION AREA_FL=BUILDING STORY 1_SCH=B
   #Components on Return Air Path,1
   Return Air Path Component,1,AIRLOOPHVAC:ZONEMIXER,AIR LOOP HVAC ZONE MIXER 18,SYS_3_PSZ ALL_ST=FOOD PREPARATION AREA_FL=BUILDING STORY 1_SCH=B
     #Inlet Nodes on Return Air Path Component,1
[...]
 Non-Parent Node Connection,NODE 128,OUTDOORAIR:MIXER,AIR LOOP HVAC OUTDOOR AIR SYSTEM 6 OUTDOOR AIR MIXER,Inlet,1
 Non-Parent Node Connection,NODE 150,OUTDOORAIR:MIXER,AIR LOOP HVAC OUTDOOR AIR SYSTEM 7 OUTDOOR AIR MIXER,Outlet,1
 Non-Parent Node Connection,NODE 414,OUTDOORAIR:MIXER,AIR LOOP HVAC OUTDOOR AIR SYSTEM 7 OUTDOOR AIR MIXER,Inlet,1
 Non-Parent Node Connection,NODE 415,OUTDOORAIR:MIXER,AIR LOOP HVAC OUTDOOR AIR SYSTEM 7 OUTDOOR AIR MIXER,ReliefAir,1
 Non-Parent Node Connection,NODE 141,OUTDOORAIR:MIXER,AIR LOOP HVAC OUTDOOR AIR SYSTEM 7 OUTDOOR AIR MIXER,Inlet,1
 Non-Parent Node Connection,NODE 163,OUTDOORAIR:MIXER,AIR LOOP HVAC OUTDOOR AIR SYSTEM 8 OUTDOOR AIR MIXER,Outlet,1
 Non-Parent Node Connection,NODE 416,OUTDOORAIR:MIXER,AIR LOOP HVAC OUTDOOR AIR SYSTEM 8 OUTDOOR AIR MIXER,Inlet,1
 Non-Parent Node Connection,NODE 417,OUTDOORAIR:MIXER,AIR LOOP HVAC OUTDOOR AIR SYSTEM 8 OUTDOOR AIR MIXER,ReliefAir,1
 Non-Parent Node Connection,NODE 154,OUTDOORAIR:MIXER,AIR LOOP HVAC OUTDOOR AIR SYSTEM 8 OUTDOOR AIR MIXER,Inlet,1
 Non-Parent Node Connection,NODE 202,OUTDOORAIR:MIXER,AIR LOOP HVAC OUTDOOR AIR SYSTEM 11 OUTDOOR AIR MIXER,Outlet,1
 Non-Parent Node Connection,NODE 418,OUTDOORAIR:MIXER,AIR LOOP HVAC OUTDOOR AIR SYSTEM 11 OUTDOOR AIR MIXER,Inlet,1
 Non-Parent Node Connection,NODE 419,OUTDOORAIR:MIXER,AIR LOOP HVAC OUTDOOR AIR SYSTEM 11 OUTDOOR AIR MIXER,ReliefAir,1
 Non-Parent Node Connection,NODE 193,OUTDOORAIR:MIXER,AIR LOOP HVAC OUTDOOR AIR SYSTEM 11 OUTDOOR AIR MIXER,Inlet,1
 Non-Parent Node Connection,NODE 319,OUTDOORAIR:MIXER,AIR LOOP HVAC OUTDOOR AIR SYSTEM 20 OUTDOOR AIR MIXER,Outlet,1
 Non-Parent Node Connection,NODE 420,OUTDOORAIR:MIXER,AIR LOOP HVAC OUTDOOR AIR SYSTEM 20 OUTDOOR AIR MIXER,Inlet,1
 Non-Parent Node Connection,NODE 421,OUTDOORAIR:MIXER,AIR LOOP HVAC OUTDOOR AIR SYSTEM 20 OUTDOOR AIR MIXER,ReliefAir,1
 Non-Parent Node Connection,NODE 310,OUTDOORAIR:MIXER,AIR LOOP HVAC OUTDOOR AIR SYSTEM 20 OUTDOOR AIR MIXER,Inlet,1
 Non-Parent Node Connection,NODE 293,OUTDOORAIR:MIXER,AIR LOOP HVAC OUTDOOR AIR SYSTEM 18 OUTDOOR AIR MIXER,Outlet,1
 Non-Parent Node Connection,NODE 422,OUTDOORAIR:MIXER,AIR LOOP HVAC OUTDOOR AIR SYSTEM 18 OUTDOOR AIR MIXER,Inlet,1
 Non-Parent Node Connection,NODE 423,OUTDOORAIR:MIXER,AIR LOOP HVAC OUTDOOR AIR SYSTEM 18 OUTDOOR AIR MIXER,ReliefAir,1
 Non-Parent Node Connection,NODE 284,OUTDOORAIR:MIXER,AIR LOOP HVAC OUTDOOR AIR SYSTEM 18 OUTDOOR AIR MIXER,Inlet,1
 Non-Parent Node Connection,NODE 254,OUTDOORAIR:MIXER,AIR LOOP HVAC OUTDOOR AIR SYSTEM 15 OUTDOOR AIR MIXER,Outlet,1
 Non-Parent Node Connection,NODE 424,OUTDOORAIR:MIXER,AIR LOOP HVAC OUTDOOR AIR SYSTEM 15 OUTDOOR AIR MIXER,Inlet,1
 Non-Parent Node Connection,NODE 425,OUTDOORAIR:MIXER,AIR LOOP HVAC OUTDOOR AIR SYSTEM 15 OUTDOOR AIR MIXER,ReliefAir,1
 Non-Parent Node Connection,NODE 245,OUTDOORAIR:MIXER,AIR LOOP HVAC OUTDOOR AIR SYSTEM 15 OUTDOOR AIR MIXER,Inlet,1
 Non-Parent Node Connection,NODE 280,OUTDOORAIR:MIXER,AIR LOOP HVAC OUTDOOR AIR SYSTEM 17 OUTDOOR AIR MIXER,Outlet,1
 Non-Parent Node Connection,NODE 426,OUTDOORAIR:MIXER,AIR LOOP HVAC OUTDOOR AIR SYSTEM 17 OUTDOOR AIR MIXER,Inlet,1
 Non-Parent Node Connection,NODE 427,OUTDOORAIR:MIXER,AIR LOOP HVAC OUTDOOR AIR SYSTEM 17 OUTDOOR AIR MIXER,ReliefAir,1
 Non-Parent Node Connection,NODE 271,OUTDOORAIR:MIXER,AIR LOOP HVAC OUTDOOR AIR SYSTEM 17 OUTDOOR AIR MIXER,Inlet,1
 Non-Parent Node Connection,NODE 228,OUTDOORAIR:MIXER,AIR LOOP HVAC OUTDOOR AIR SYSTEM 13 OUTDOOR AIR MIXER,Outlet,1
 Non-Parent Node Connection,NODE 428,OUTDOORAIR:MIXER,AIR LOOP HVAC OUTDOOR AIR SYSTEM 13 OUTDOOR AIR MIXER,Inlet,1
 Non-Parent Node Connection,NODE 429,OUTDOORAIR:MIXER,AIR LOOP HVAC OUTDOOR AIR SYSTEM 13 OUTDOOR AIR MIXER,ReliefAir,1
 Non-Parent Node Connection,NODE 219,OUTDOORAIR:MIXER,AIR LOOP HVAC OUTDOOR AIR SYSTEM 13 OUTDOOR AIR MIXER,Inlet,1
 Non-Parent Node Connection,NODE 98,OUTDOORAIR:MIXER,AIR LOOP HVAC OUTDOOR AIR SYSTEM 3 OUTDOOR AIR MIXER,Outlet,1
 Non-Parent Node Connection,NODE 430,OUTDOORAIR:MIXER,AIR LOOP HVAC OUTDOOR AIR SYSTEM 3 OUTDOOR AIR MIXER,Inlet,1
 Non-Parent Node Connection,NODE 431,OUTDOORAIR:MIXER,AIR LOOP HVAC OUTDOOR AIR SYSTEM 3 OUTDOOR AIR MIXER,ReliefAir,1
 Non-Parent Node Connection,NODE 89,OUTDOORAIR:MIXER,AIR LOOP HVAC OUTDOOR AIR SYSTEM 3 OUTDOOR AIR MIXER,Inlet,1
 Non-Parent Node Connection,NODE 111,OUTDOORAIR:MIXER,AIR LOOP HVAC OUTDOOR AIR SYSTEM 4 OUTDOOR AIR MIXER,Outlet,1
 Non-Parent Node Connection,NODE 432,OUTDOORAIR:MIXER,AIR LOOP HVAC OUTDOOR AIR SYSTEM 4 OUTDOOR AIR MIXER,Inlet,1
 Non-Parent Node Connection,NODE 433,OUTDOORAIR:MIXER,AIR LOOP HVAC OUTDOOR AIR SYSTEM 4 OUTDOOR AIR MIXER,ReliefAir,1
 Non-Parent Node Connection,NODE 102,OUTDOORAIR:MIXER,AIR LOOP HVAC OUTDOOR AIR SYSTEM 4 OUTDOOR AIR MIXER,Inlet,1
 Non-Parent Node Connection,NODE 241,OUTDOORAIR:MIXER,AIR LOOP HVAC OUTDOOR AIR SYSTEM 14 OUTDOOR AIR MIXER,Outlet,1
 Non-Parent Node Connection,NODE 434,OUTDOORAIR:MIXER,AIR LOOP HVAC OUTDOOR AIR SYSTEM 14 OUTDOOR AIR MIXER,Inlet,1
 Non-Parent Node Connection,NODE 435,OUTDOORAIR:MIXER,AIR LOOP HVAC OUTDOOR AIR SYSTEM 14 OUTDOOR AIR MIXER,ReliefAir,1
 Non-Parent Node Connection,NODE 232,OUTDOORAIR:MIXER,AIR LOOP HVAC OUTDOOR AIR SYSTEM 14 OUTDOOR AIR MIXER,Inlet,1
 Non-Parent Node Connection,NODE 306,OUTDOORAIR:MIXER,AIR LOOP HVAC OUTDOOR AIR SYSTEM 19 OUTDOOR AIR MIXER,Outlet,1
 Non-Parent Node Connection,NODE 436,OUTDOORAIR:MIXER,AIR LOOP HVAC OUTDOOR AIR SYSTEM 19 OUTDOOR AIR MIXER,Inlet,1
 Non-Parent Node Connection,NODE 437,OUTDOORAIR:MIXER,AIR LOOP HVAC OUTDOOR AIR SYSTEM 19 OUTDOOR AIR MIXER,ReliefAir,1
 Non-Parent Node Connection,NODE 297,OUTDOORAIR:MIXER,AIR LOOP HVAC OUTDOOR AIR SYSTEM 19 OUTDOOR AIR MIXER,Inlet,1
 Non-Parent Node Connection,NODE 35,OUTDOORAIR:MIXER,AIR LOOP HVAC OUTDOOR AIR SYSTEM 1 OUTDOOR AIR MIXER,Outlet,1
 Non-Parent Node Connection,NODE 438,OUTDOORAIR:MIXER,AIR LOOP HVAC OUTDOOR AIR SYSTEM 1 OUTDOOR AIR MIXER,Inlet,1
 Non-Parent Node Connection,NODE 439,OUTDOORAIR:MIXER,AIR LOOP HVAC OUTDOOR AIR SYSTEM 1 OUTDOOR AIR MIXER,ReliefAir,1
 Non-Parent Node Connection,NODE 21,OUTDOORAIR:MIXER,AIR LOOP HVAC OUTDOOR AIR SYSTEM 1 OUTDOOR AIR MIXER,Inlet,1
 Non-Parent Node Connection,NODE 59,OUTDOORAIR:MIXER,AIR LOOP HVAC OUTDOOR AIR SYSTEM 2 OUTDOOR AIR MIXER,Outlet,1
 Non-Parent Node Connection,NODE 440,OUTDOORAIR:MIXER,AIR LOOP HVAC OUTDOOR AIR SYSTEM 2 OUTDOOR AIR MIXER,Inlet,1
 Non-Parent Node Connection,NODE 441,OUTDOORAIR:MIXER,AIR LOOP HVAC OUTDOOR AIR SYSTEM 2 OUTDOOR AIR MIXER,ReliefAir,1
 Non-Parent Node Connection,NODE 45,OUTDOORAIR:MIXER,AIR LOOP HVAC OUTDOOR AIR SYSTEM 2 OUTDOOR AIR MIXER,Inlet,1
 Non-Parent Node Connection,NODE 215,CONTROLLER:OUTDOORAIR,CONTROLLER OUTDOOR AIR 12,Sensor,1
 Non-Parent Node Connection,NODE 211,CONTROLLER:OUTDOORAIR,CONTROLLER OUTDOOR AIR 12,Actuator,1
 Non-Parent Node Connection,NODE 403,CONTROLLER:OUTDOORAIR,CONTROLLER OUTDOOR AIR 12,Actuator,1
 Non-Parent Node Connection,NODE 206,CONTROLLER:OUTDOORAIR,CONTROLLER OUTDOOR AIR 12,Sensor,1
 Non-Parent Node Connection,NODE 124,CONTROLLER:OUTDOORAIR,CONTROLLER OUTDOOR AIR 5,Sensor,1
 Non-Parent Node Connection,NODE 120,CONTROLLER:OUTDOORAIR,CONTROLLER OUTDOOR AIR 5,Actuator,1
 Non-Parent Node Connection,NODE 405,CONTROLLER:OUTDOORAIR,CONTROLLER OUTDOOR AIR 5,Actuator,1
 Non-Parent Node Connection,NODE 115,CONTROLLER:OUTDOORAIR,CONTROLLER OUTDOOR AIR 5,Sensor,1
 Non-Parent Node Connection,NODE 176,CONTROLLER:OUTDOORAIR,CONTROLLER OUTDOOR AIR 9,Sensor,1
 Non-Parent Node Connection,NODE 172,CONTROLLER:OUTDOORAIR,CONTROLLER OUTDOOR AIR 9,Actuator,1
 Non-Parent Node Connection,NODE 407,CONTROLLER:OUTDOORAIR,CONTROLLER OUTDOOR AIR 9,Actuator,1
 Non-Parent Node Connection,NODE 167,CONTROLLER:OUTDOORAIR,CONTROLLER OUTDOOR AIR 9,Sensor,1
 Non-Parent Node Connection,NODE 189,CONTROLLER:OUTDOORAIR,CONTROLLER OUTDOOR AIR 10,Sensor,1
 Non-Parent Node Connection,NODE 185,CONTROLLER:OUTDOORAIR,CONTROLLER OUTDOOR AIR 10,Actuator,1
 Non-Parent Node Connection,NODE 409,CONTROLLER:OUTDOORAIR,CONTROLLER OUTDOOR AIR 10,Actuator,1
 Non-Parent Node Connection,NODE 180,CONTROLLER:OUTDOORAIR,CONTROLLER OUTDOOR AIR 10,Sensor,1
 Non-Parent Node Connection,NODE 267,CONTROLLER:OUTDOORAIR,CONTROLLER OUTDOOR AIR 16,Sensor,1
 Non-Parent Node Connection,NODE 263,CONTROLLER:OUTDOORAIR,CONTROLLER OUTDOOR AIR 16,Actuator,1
 Non-Parent Node Connection,NODE 411,CONTROLLER:OUTDOORAIR,CONTROLLER OUTDOOR AIR 16,Actuator,1
 Non-Parent Node Connection,NODE 258,CONTROLLER:OUTDOORAIR,CONTROLLER OUTDOOR AIR 16,Sensor,1
 Non-Parent Node Connection,NODE 137,CONTROLLER:OUTDOORAIR,CONTROLLER OUTDOOR AIR 6,Sensor,1
 Non-Parent Node Connection,NODE 133,CONTROLLER:OUTDOORAIR,CONTROLLER OUTDOOR AIR 6,Actuator,1
 Non-Parent Node Connection,NODE 413,CONTROLLER:OUTDOORAIR,CONTROLLER OUTDOOR AIR 6,Actuator,1
 Non-Parent Node Connection,NODE 128,CONTROLLER:OUTDOORAIR,CONTROLLER OUTDOOR AIR 6,Sensor,1
 Non-Parent Node Connection,NODE 150,CONTROLLER:OUTDOORAIR,CONTROLLER OUTDOOR AIR 7,Sensor,1
 Non-Parent Node Connection,NODE 146,CONTROLLER:OUTDOORAIR,CONTROLLER OUTDOOR AIR 7,Actuator,1
 Non-Parent Node Connection,NODE 415,CONTROLLER:OUTDOORAIR,CONTROLLER OUTDOOR AIR 7,Actuator,1
 Non-Parent Node Connection,NODE 141,CONTROLLER:OUTDOORAIR,CONTROLLER OUTDOOR AIR 7,Sensor,1
 Non-Parent Node Connection,NODE 163,CONTROLLER:OUTDOORAIR,CONTROLLER OUTDOOR AIR 8,Sensor,1
 Non-Parent Node Connection,NODE 159,CONTROLLER:OUTDOORAIR,CONTROLLER OUTDOOR AIR 8,Actuator,1
 Non-Parent Node Connection,NODE 417,CONTROLLER:OUTDOORAIR,CONTROLLER OUTDOOR AIR 8,Actuator,1
 Non-Parent Node Connection,NODE 154,CONTROLLER:OUTDOORAIR,CONTROLLER OUTDOOR AIR 8,Sensor,1
 Non-Parent Node Connection,NODE 202,CONTROLLER:OUTDOORAIR,CONTROLLER OUTDOOR AIR 11,Sensor,1
 Non-Parent Node Connection,NODE 198,CONTROLLER:OUTDOORAIR,CONTROLLER OUTDOOR AIR 11,Actuator,1
 Non-Parent Node Connection,NODE 419,CONTROLLER:OUTDOORAIR,CONTROLLER OUTDOOR AIR 11,Actuator,1
 Non-Parent Node Connection,NODE 193,CONTROLLER:OUTDOORAIR,CONTROLLER OUTDOOR AIR 11,Sensor,1
 Non-Parent Node Connection,NODE 319,CONTROLLER:OUTDOORAIR,CONTROLLER OUTDOOR AIR 20,Sensor,1
 Non-Parent Node Connection,NODE 315,CONTROLLER:OUTDOORAIR,CONTROLLER OUTDOOR AIR 20,Actuator,1
 Non-Parent Node Connection,NODE 421,CONTROLLER:OUTDOORAIR,CONTROLLER OUTDOOR AIR 20,Actuator,1
 Non-Parent Node Connection,NODE 310,CONTROLLER:OUTDOORAIR,CONTROLLER OUTDOOR AIR 20,Sensor,1
 Non-Parent Node Connection,NODE 293,CONTROLLER:OUTDOORAIR,CONTROLLER OUTDOOR AIR 18,Sensor,1
 Non-Parent Node Connection,NODE 289,CONTROLLER:OUTDOORAIR,CONTROLLER OUTDOOR AIR 18,Actuator,1
 Non-Parent Node Connection,NODE 423,CONTROLLER:OUTDOORAIR,CONTROLLER OUTDOOR AIR 18,Actuator,1
 Non-Parent Node Connection,NODE 284,CONTROLLER:OUTDOORAIR,CONTROLLER OUTDOOR AIR 18,Sensor,1
 Non-Parent Node Connection,NODE 254,CONTROLLER:OUTDOORAIR,CONTROLLER OUTDOOR AIR 15,Sensor,1
 Non-Parent Node Connection,NODE 250,CONTROLLER:OUTDOORAIR,CONTROLLER OUTDOOR AIR 15,Actuator,1
 Non-Parent Node Connection,NODE 425,CONTROLLER:OUTDOORAIR,CONTROLLER OUTDOOR AIR 15,Actuator,1
 Non-Parent Node Connection,NODE 245,CONTROLLER:OUTDOORAIR,CONTROLLER OUTDOOR AIR 15,Sensor,1
 Non-Parent Node Connection,NODE 280,CONTROLLER:OUTDOORAIR,CONTROLLER OUTDOOR AIR 17,Sensor,1
 Non-Parent Node Connection,NODE 276,CONTROLLER:OUTDOORAIR,CONTROLLER OUTDOOR AIR 17,Actuator,1
 Non-Parent Node Connection,NODE 427,CONTROLLER:OUTDOORAIR,CONTROLLER OUTDOOR AIR 17,Actuator,1
 Non-Parent Node Connection,NODE 271,CONTROLLER:OUTDOORAIR,CONTROLLER OUTDOOR AIR 17,Sensor,1
 Non-Parent Node Connection,NODE 228,CONTROLLER:OUTDOORAIR,CONTROLLER OUTDOOR AIR 13,Sensor,1
 Non-Parent Node Connection,NODE 224,CONTROLLER:OUTDOORAIR,CONTROLLER OUTDOOR AIR 13,Actuator,1
 Non-Parent Node Connection,NODE 429,CONTROLLER:OUTDOORAIR,CONTROLLER OUTDOOR AIR 13,Actuator,1
 Non-Parent Node Connection,NODE 219,CONTROLLER:OUTDOORAIR,CONTROLLER OUTDOOR AIR 13,Sensor,1
 Non-Parent Node Connection,NODE 98,CONTROLLER:OUTDOORAIR,CONTROLLER OUTDOOR AIR 3,Sensor,1
 Non-Parent Node Connection,NODE 94,CONTROLLER:OUTDOORAIR,CONTROLLER OUTDOOR AIR 3,Actuator,1
 Non-Parent Node Connection,NODE 431,CONTROLLER:OUTDOORAIR,CONTROLLER OUTDOOR AIR 3,Actuator,1
 Non-Parent Node Connection,NODE 89,CONTROLLER:OUTDOORAIR,CONTROLLER OUTDOOR AIR 3,Sensor,1
 Non-Parent Node Connection,NODE 111,CONTROLLER:OUTDOORAIR,CONTROLLER OUTDOOR AIR 4,Sensor,1
 Non-Parent Node Connection,NODE 107,CONTROLLER:OUTDOORAIR,CONTROLLER OUTDOOR AIR 4,Actuator,1
 Non-Parent Node Connection,NODE 433,CONTROLLER:OUTDOORAIR,CONTROLLER OUTDOOR AIR 4,Actuator,1
 Non-Parent Node Connection,NODE 102,CONTROLLER:OUTDOORAIR,CONTROLLER OUTDOOR AIR 4,Sensor,1
 Non-Parent Node Connection,NODE 241,CONTROLLER:OUTDOORAIR,CONTROLLER OUTDOOR AIR 14,Sensor,1
 Non-Parent Node Connection,NODE 237,CONTROLLER:OUTDOORAIR,CONTROLLER OUTDOOR AIR 14,Actuator,1
 Non-Parent Node Connection,NODE 435,CONTROLLER:OUTDOORAIR,CONTROLLER OUTDOOR AIR 14,Actuator,1
 Non-Parent Node Connection,NODE 232,CONTROLLER:OUTDOORAIR,CONTROLLER OUTDOOR AIR 14,Sensor,1
 Non-Parent Node Connection,NODE 306,CONTROLLER:OUTDOORAIR,CONTROLLER OUTDOOR AIR 19,Sensor,1
 Non-Parent Node Connection,NODE 302,CONTROLLER:OUTDOORAIR,CONTROLLER OUTDOOR AIR 19,Actuator,1
 Non-Parent Node Connection,NODE 437,CONTROLLER:OUTDOORAIR,CONTROLLER OUTDOOR AIR 19,Actuator,1
 Non-Parent Node Connection,NODE 297,CONTROLLER:OUTDOORAIR,CONTROLLER OUTDOOR AIR 19,Sensor,1
 Non-Parent Node Connection,NODE 35,CONTROLLER:OUTDOORAIR,CONTROLLER OUTDOOR AIR 1,Sensor,1
 Non-Parent Node Connection,NODE 29,CONTROLLER:OUTDOORAIR,CONTROLLER OUTDOOR AIR 1,Actuator,1
 Non-Parent Node Connection,NODE 439,CONTROLLER:OUTDOORAIR,CONTROLLER OUTDOOR AIR 1,Actuator,1
 Non-Parent Node Connection,NODE 21,CONTROLLER:OUTDOORAIR,CONTROLLER OUTDOOR AIR 1,Sensor,1
 Non-Parent Node Connection,NODE 59,CONTROLLER:OUTDOORAIR,CONTROLLER OUTDOOR AIR 2,Sensor,1
 Non-Parent Node Connection,NODE 53,CONTROLLER:OUTDOORAIR,CONTROLLER OUTDOOR AIR 2,Actuator,1
 Non-Parent Node Connection,NODE 441,CONTROLLER:OUTDOORAIR,CONTROLLER OUTDOOR AIR 2,Actuator,1
 Non-Parent Node Connection,NODE 45,CONTROLLER:OUTDOORAIR,CONTROLLER OUTDOOR AIR 2,Sensor,1
 Non-Parent Node Connection,NODE 214,COIL:HEATING:FUEL,COIL HEATING GAS 12,Inlet,1
 Non-Parent Node Connection,NODE 457,COIL:HEATING:FUEL,COIL HEATING GAS 12,Outlet,1
 Non-Parent Node Connection,NODE 457,COIL:HEATING:FUEL,COIL HEATING GAS 12,Sensor,1
 Non-Parent Node Connection,NODE 123,COIL:HEATING:FUEL,COIL HEATING GAS 5,Inlet,1
 Non-Parent Node Connection,NODE 481,COIL:HEATING:FUEL,COIL HEATING GAS 5,Outlet,1
 Non-Parent Node Connection,NODE 481,COIL:HEATING:FUEL,COIL HEATING GAS 5,Sensor,1
 Non-Parent Node Connection,NODE 175,COIL:HEATING:FUEL,COIL HEATING GAS 9,Inlet,1
 Non-Parent Node Connection,NODE 468,COIL:HEATING:FUEL,COIL HEATING GAS 9,Outlet,1
 Non-Parent Node Connection,NODE 468,COIL:HEATING:FUEL,COIL HEATING GAS 9,Sensor,1
 Non-Parent Node Connection,NODE 188,COIL:HEATING:FUEL,COIL HEATING GAS 10,Inlet,1
 Non-Parent Node Connection,NODE 485,COIL:HEATING:FUEL,COIL HEATING GAS 10,Outlet,1
 Non-Parent Node Connection,NODE 485,COIL:HEATING:FUEL,COIL HEATING GAS 10,Sensor,1
 Non-Parent Node Connection,NODE 266,COIL:HEATING:FUEL,COIL HEATING GAS 16,Inlet,1
 Non-Parent Node Connection,NODE 451,COIL:HEATING:FUEL,COIL HEATING GAS 16,Outlet,1
 Non-Parent Node Connection,NODE 451,COIL:HEATING:FUEL,COIL HEATING GAS 16,Sensor,1
 Non-Parent Node Connection,NODE 136,COIL:HEATING:FUEL,COIL HEATING GAS 6,Inlet,1
 Non-Parent Node Connection,NODE 483,COIL:HEATING:FUEL,COIL HEATING GAS 6,Outlet,1
 Non-Parent Node Connection,NODE 483,COIL:HEATING:FUEL,COIL HEATING GAS 6,Sensor,1
 Non-Parent Node Connection,NODE 149,COIL:HEATING:FUEL,COIL HEATING GAS 7,Inlet,1
 Non-Parent Node Connection,NODE 477,COIL:HEATING:FUEL,COIL HEATING GAS 7,Outlet,1
 Non-Parent Node Connection,NODE 477,COIL:HEATING:FUEL,COIL HEATING GAS 7,Sensor,1
 Non-Parent Node Connection,NODE 162,COIL:HEATING:FUEL,COIL HEATING GAS 8,Inlet,1
 Non-Parent Node Connection,NODE 466,COIL:HEATING:FUEL,COIL HEATING GAS 8,Outlet,1
 Non-Parent Node Connection,NODE 466,COIL:HEATING:FUEL,COIL HEATING GAS 8,Sensor,1
 Non-Parent Node Connection,NODE 201,COIL:HEATING:FUEL,COIL HEATING GAS 11,Inlet,1
 Non-Parent Node Connection,NODE 479,COIL:HEATING:FUEL,COIL HEATING GAS 11,Outlet,1
 Non-Parent Node Connection,NODE 479,COIL:HEATING:FUEL,COIL HEATING GAS 11,Sensor,1
 Non-Parent Node Connection,NODE 318,COIL:HEATING:FUEL,COIL HEATING GAS 20,Inlet,1
 Non-Parent Node Connection,NODE 443,COIL:HEATING:FUEL,COIL HEATING GAS 20,Outlet,1
 Non-Parent Node Connection,NODE 443,COIL:HEATING:FUEL,COIL HEATING GAS 20,Sensor,1
 Non-Parent Node Connection,NODE 292,COIL:HEATING:FUEL,COIL HEATING GAS 18,Inlet,1
 Non-Parent Node Connection,NODE 445,COIL:HEATING:FUEL,COIL HEATING GAS 18,Outlet,1
 Non-Parent Node Connection,NODE 445,COIL:HEATING:FUEL,COIL HEATING GAS 18,Sensor,1
 Non-Parent Node Connection,NODE 253,COIL:HEATING:FUEL,COIL HEATING GAS 15,Inlet,1
 Non-Parent Node Connection,NODE 449,COIL:HEATING:FUEL,COIL HEATING GAS 15,Outlet,1
 Non-Parent Node Connection,NODE 449,COIL:HEATING:FUEL,COIL HEATING GAS 15,Sensor,1
 Non-Parent Node Connection,NODE 279,COIL:HEATING:FUEL,COIL HEATING GAS 17,Inlet,1
 Non-Parent Node Connection,NODE 447,COIL:HEATING:FUEL,COIL HEATING GAS 17,Outlet,1
 Non-Parent Node Connection,NODE 447,COIL:HEATING:FUEL,COIL HEATING GAS 17,Sensor,1
 Non-Parent Node Connection,NODE 227,COIL:HEATING:FUEL,COIL HEATING GAS 13,Inlet,1
 Non-Parent Node Connection,NODE 455,COIL:HEATING:FUEL,COIL HEATING GAS 13,Outlet,1
 Non-Parent Node Connection,NODE 455,COIL:HEATING:FUEL,COIL HEATING GAS 13,Sensor,1
 Non-Parent Node Connection,NODE 97,COIL:HEATING:FUEL,COIL HEATING GAS 3,Inlet,1
 Non-Parent Node Connection,NODE 473,COIL:HEATING:FUEL,COIL HEATING GAS 3,Outlet,1
 Non-Parent Node Connection,NODE 473,COIL:HEATING:FUEL,COIL HEATING GAS 3,Sensor,1
 Non-Parent Node Connection,NODE 110,COIL:HEATING:FUEL,COIL HEATING GAS 4,Inlet,1
 Non-Parent Node Connection,NODE 475,COIL:HEATING:FUEL,COIL HEATING GAS 4,Outlet,1
 Non-Parent Node Connection,NODE 475,COIL:HEATING:FUEL,COIL HEATING GAS 4,Sensor,1
 Non-Parent Node Connection,NODE 240,COIL:HEATING:FUEL,COIL HEATING GAS 14,Inlet,1
 Non-Parent Node Connection,NODE 453,COIL:HEATING:FUEL,COIL HEATING GAS 14,Outlet,1
 Non-Parent Node Connection,NODE 453,COIL:HEATING:FUEL,COIL HEATING GAS 14,Sensor,1
 Non-Parent Node Connection,NODE 305,COIL:HEATING:FUEL,COIL HEATING GAS 19,Inlet,1
 Non-Parent Node Connection,NODE 401,COIL:HEATING:FUEL,COIL HEATING GAS 19,Outlet,1
 Non-Parent Node Connection,NODE 401,COIL:HEATING:FUEL,COIL HEATING GAS 19,Sensor,1
 Non-Parent Node Connection,NODE 33,COIL:HEATING:FUEL,COIL HEATING GAS 1,Inlet,1
 Non-Parent Node Connection,NODE 470,COIL:HEATING:FUEL,COIL HEATING GAS 1,Outlet,1
 Non-Parent Node Connection,NODE 470,COIL:HEATING:FUEL,COIL HEATING GAS 1,Sensor,1
 Non-Parent Node Connection,NODE 57,COIL:HEATING:FUEL,COIL HEATING GAS 2,Inlet,1
 Non-Parent Node Connection,NODE 459,COIL:HEATING:FUEL,COIL HEATING GAS 2,Outlet,1
 Non-Parent Node Connection,NODE 459,COIL:HEATING:FUEL,COIL HEATING GAS 2,Sensor,1
 Non-Parent Node Connection,NODE 5,BOILER:HOTWATER,PRIMARY BOILER 2233KBTU/HR 0.83 THERMAL EFF,Inlet,1
 Non-Parent Node Connection,NODE 12,BOILER:HOTWATER,PRIMARY BOILER 2233KBTU/HR 0.83 THERMAL EFF,Outlet,1
 Non-Parent Node Connection,NODE 14,BOILER:HOTWATER,SECONDARY BOILER 0KBTU/HR 0.85 AFUE,Inlet,1
 Non-Parent Node Connection,NODE 15,BOILER:HOTWATER,SECONDARY BOILER 0KBTU/HR 0.85 AFUE,Outlet,1
 Non-Parent Node Connection,NODE 2,PUMP:VARIABLESPEED,PUMP VARIABLE SPEED 1,Inlet,1
 Non-Parent Node Connection,NODE 11,PUMP:VARIABLESPEED,PUMP VARIABLE SPEED 1,Outlet,1
 Non-Parent Node Connection,NODE 323,PUMP:CONSTANTSPEED,SERVICE WATER LOOP PUMP,Inlet,1
 Non-Parent Node Connection,NODE 329,PUMP:CONSTANTSPEED,SERVICE WATER LOOP PUMP,Outlet,1
