Program Version,EnergyPlus, Version 8.9.0-497bb3e71c, YMD=2018.06.06 17:01
! <Version>, Version ID
 Version, 8.9
! <Timesteps per Hour>, #TimeSteps, Minutes per TimeStep {minutes}
 Timesteps per Hour,  1, 60
! <System Convergence Limits>, Minimum System TimeStep {minutes}, Max HVAC Iterations, Minimum Plant Iterations, Maximum Plant Iterations
 System Convergence Limits, 1, 20, 2, 8
! <Simulation Control>, Do Zone Sizing, Do System Sizing, Do Plant Sizing, Do Design Days, Do Weather Simulation, Do HVAC Sizing Simulation
 Simulation Control, Yes, Yes, Yes, No, Yes, No
! <Output Reporting Tolerances>, Tolerance for Time Heating Setpoint Not Met, Tolerance for Zone Cooling Setpoint Not Met Time
 Output Reporting Tolerances, 0.200, 0.200, 
! <Site:GroundTemperature:BuildingSurface>,Jan{C},Feb{C},Mar{C},Apr{C},May{C},Jun{C},Jul{C},Aug{C},Sep{C},Oct{C},Nov{C},Dec{C}
 Site:GroundTemperature:BuildingSurface,  19.53,  19.50,  19.54,  19.60,  20.00,  21.64,  22.23,  22.38,  21.45,  20.12,  19.80,  19.63
! <Site:GroundTemperature:FCfactorMethod>,Jan{C},Feb{C},Mar{C},Apr{C},May{C},Jun{C},Jul{C},Aug{C},Sep{C},Oct{C},Nov{C},Dec{C}
 Site:GroundTemperature:FCfactorMethod,  -0.60,   1.34,   5.12,   8.69,  15.46,  19.02,  20.00,  18.20,  14.02,   8.83,   3.71,   0.32
! <Site:GroundTemperature:Shallow>,Jan{C},Feb{C},Mar{C},Apr{C},May{C},Jun{C},Jul{C},Aug{C},Sep{C},Oct{C},Nov{C},Dec{C}
 Site:GroundTemperature:Shallow,  13.00,  13.00,  13.00,  13.00,  13.00,  13.00,  13.00,  13.00,  13.00,  13.00,  13.00,  13.00
! <Site:GroundTemperature:Deep>,Jan{C},Feb{C},Mar{C},Apr{C},May{C},Jun{C},Jul{C},Aug{C},Sep{C},Oct{C},Nov{C},Dec{C}
 Site:GroundTemperature:Deep,  16.00,  16.00,  16.00,  16.00,  16.00,  16.00,  16.00,  16.00,  16.00,  16.00,  16.00,  16.00
! <Site:GroundReflectance>,Jan{dimensionless},Feb{dimensionless},Mar{dimensionless},Apr{dimensionless},May{dimensionless},Jun{dimensionless},Jul{dimensionless},Aug{dimensionless},Sep{dimensionless},Oct{dimensionless},Nov{dimensionless},Dec{dimensionless}
 Site:GroundReflectance,  0.20,  0.20,  0.20,  0.20,  0.20,  0.20,  0.20,  0.20,  0.20,  0.20,  0.20,  0.20
! <Site:GroundReflectance:SnowModifier>, Normal, Daylighting {dimensionless}
 Site:GroundReflectance:SnowModifier,   1.000,   1.000
! <Site:GroundReflectance:Snow>,Jan{dimensionless},Feb{dimensionless},Mar{dimensionless},Apr{dimensionless},May{dimensionless},Jun{dimensionless},Jul{dimensionless},Aug{dimensionless},Sep{dimensionless},Oct{dimensionless},Nov{dimensionless},Dec{dimensionless}
 Site:GroundReflectance:Snow,  0.20,  0.20,  0.20,  0.20,  0.20,  0.20,  0.20,  0.20,  0.20,  0.20,  0.20,  0.20
! <Site:GroundReflectance:Snow:Daylighting>,Jan{dimensionless},Feb{dimensionless},Mar{dimensionless},Apr{dimensionless},May{dimensionless},Jun{dimensionless},Jul{dimensionless},Aug{dimensionless},Sep{dimensionless},Oct{dimensionless},Nov{dimensionless},Dec{dimensionless}
 Site:GroundReflectance:Snow:Daylighting,  0.20,  0.20,  0.20,  0.20,  0.20,  0.20,  0.20,  0.20,  0.20,  0.20,  0.20,  0.20
! <Environment:Weather Station>,Wind Sensor Height Above Ground {m},Wind Speed Profile Exponent {},Wind Speed Profile Boundary Layer Thickness {m},Air Temperature Sensor Height Above Ground {m},Wind Speed Modifier Coefficient-Internal,Temperature Modifier Coefficient-Internal
Environment:Weather Station,10.000,0.140,270.000,1.500,1.586,9.750E-003
! <Site:Location>, Location Name, Latitude {N+/S- Deg}, Longitude {E+/W- Deg},  Time Zone Number {GMT+/-}, Elevation {m},  Standard Pressure at Elevation {Pa}, Standard RhoAir at Elevation
Site:Location,Denver Centennial  Golden   Nr CO USA TMY3 WMO#=724666,39.74,-105.18,-7.00,1829.00,81198,0.9651
! <Building Information>, Building Name,North Axis {deg},Terrain,  Loads Convergence Tolerance Value,Temperature Convergence Tolerance Value,  Solar Distribution,Maximum Number of Warmup Days,Minimum Number of Warmup Days
 Building Information,HighRise_Apt_2004,104.903,Suburbs,4.00000E-002,0.40000,FullExterior,25,6
! <Inside Convection Algorithm>, Algorithm {Simple | TARP | CeilingDiffuser | AdaptiveConvectionAlgorithm}
Inside Convection Algorithm,TARP
! <Outside Convection Algorithm>, Algorithm {SimpleCombined | TARP | MoWitt | DOE-2 | AdaptiveConvectionAlgorithm}
Outside Convection Algorithm,DOE-2
! <Sky Radiance Distribution>, Value {Anisotropic}
Sky Radiance Distribution,Anisotropic
! <Zone Air Solution Algorithm>, Value {ThirdOrderBackwardDifference | AnalyticalSolution | EulerMethod}
 Zone Air Solution Algorithm, ThirdOrderBackwardDifference
! <Zone Air Carbon Dioxide Balance Simulation>, Simulation {Yes/No}, Carbon Dioxide Concentration
 Zone Air Carbon Dioxide Balance Simulation, No,N/A
! <Zone Air Generic Contaminant Balance Simulation>, Simulation {Yes/No}, Generic Contaminant Concentration
 Zone Air Generic Contaminant Balance Simulation, No,N/A
! <Zone Air Mass Flow Balance Simulation>, Enforce Mass Balance, Adjust Zone Mixing, Adjust Zone Infiltration {AddInfiltration | AdjustInfiltration | None}, Infiltration Zones {MixingSourceZonesOnly | AllZones}
 Zone Air Mass Flow Balance Simulation, No,N/A,N/A,N/A
! <HVACSystemRootFindingAlgorithm>, Value {RegulaFalsi | Bisection | BisectionThenRegulaFalsi | RegulaFalsiThenBisection}
 HVACSystemRootFindingAlgorithm, RegulaFalsi
! <Environment:Site Atmospheric Variation>,Wind Speed Profile Exponent {},Wind Speed Profile Boundary Layer Thickness {m},Air Temperature Gradient Coefficient {K/m}
Environment:Site Atmospheric Variation,0.220,370.000,6.500000E-003
! <Surface Geometry>,Starting Corner,Vertex Input Direction,Coordinate System,Daylight Reference Point Coordinate System,Rectangular (Simple) Surface Coordinate System
 Surface Geometry,UpperLeftCorner,Counterclockwise,RelativeCoordinateSystem,RelativeCoordinateSystem,RelativeToZoneOrigin
! <Surface Heat Transfer Algorithm>, Value {CTF - ConductionTransferFunction | EMPD - MoisturePenetrationDepthConductionTransferFunction | CondFD - ConductionFiniteDifference | HAMT - CombinedHeatAndMoistureFiniteElement} - Description,Inside Surface Max Temperature Limit{C}, Surface Convection Coefficient Lower Limit {W/m2-K}, Surface Convection Coefficient Upper Limit {W/m2-K}
Surface Heat Transfer Algorithm, CTF - ConductionTransferFunction,200,0.10,1000.0
! <Shading Summary>, Number of Fixed Detached Shades, Number of Building Detached Shades, Number of Attached Shades
 Shading Summary,0,0,0
! <Zone Summary>, Number of Zones, Number of Zone Surfaces, Number of SubSurfaces
 Zone Summary,50,340,40
! <Zone Information>,Zone Name,North Axis {deg},Origin X-Coordinate {m},Origin Y-Coordinate {m},Origin Z-Coordinate {m},Centroid X-Coordinate {m},Centroid Y-Coordinate {m},Centroid Z-Coordinate {m},Type,Zone Multiplier,Zone List Multiplier,Minimum X {m},Maximum X {m},Minimum Y {m},Maximum Y {m},Minimum Z {m},Maximum Z {m},Ceiling Height {m},Volume {m3},Zone Inside Convection Algorithm {Simple-Detailed-CeilingDiffuser-TrombeWall},Zone Outside Convection Algorithm {Simple-Detailed-Tarp-MoWitt-DOE-2-BLAST}, Floor Area {m2},Exterior Gross Wall Area {m2},Exterior Net Wall Area {m2},Exterior Window Area {m2}, Number of Surfaces, Number of SubSurfaces, Number of Shading SubSurfaces,  Part of Total Building Area
 Zone Information, BLOCKS-964_MULTIFAMILY_10_CORE,0.0,0.00,0.00,0.00,0.00,-3.55E-017,28.96,1,1,1,-18.97,18.97,-8.54,8.54,27.43,30.48,3.05,880.94,TARP,DOE-2,289.02,0.00,0.00,0.00,6,0,0,Yes
 Zone Information, BLOCKS-964_MULTIFAMILY_10_EAST PERIMETER,0.0,0.00,0.00,0.00,-1.62,-6.10,28.96,1,1,1,-24.56,20.21,-14.13,1.03,27.43,30.48,3.05,581.91,TARP,DOE-2,190.92,141.21,98.85,42.36,6,1,0,Yes
 Zone Information, BLOCKS-964_MULTIFAMILY_10_NORTH PERIMETER,0.0,0.00,0.00,0.00,20.58,-5.48,28.96,1,1,1,16.97,24.56,-14.13,2.22,27.43,30.48,3.05,172.02,TARP,DOE-2,56.44,51.56,36.09,15.47,6,1,0,Yes
 Zone Information, BLOCKS-964_MULTIFAMILY_10_SOUTH PERIMETER,0.0,0.00,0.00,0.00,-20.58,5.48,28.96,1,1,1,-24.56,-16.97,-2.22,14.13,27.43,30.48,3.05,172.02,TARP,DOE-2,56.44,51.56,36.09,15.47,6,1,0,Yes
 Zone Information, BLOCKS-964_MULTIFAMILY_10_WEST PERIMETER,0.0,0.00,0.00,0.00,1.62,6.10,28.96,1,1,1,-20.21,24.56,-1.03,14.13,27.43,30.48,3.05,581.91,TARP,DOE-2,190.92,141.21,98.85,42.36,6,1,0,Yes
 Zone Information, BLOCKS-964_MULTIFAMILY_1_CORE,0.0,0.00,0.00,0.00,-6.67E-017,-1.88E-017,1.52,1,1,1,-18.97,18.97,-8.54,8.54,0.00,3.05,3.05,880.94,TARP,DOE-2,289.02,0.00,0.00,0.00,6,0,0,Yes
 Zone Information, BLOCKS-964_MULTIFAMILY_1_EAST PERIMETER,0.0,0.00,0.00,0.00,-1.62,-6.10,1.52,1,1,1,-24.56,20.21,-14.13,1.03,0.00,3.05,3.05,581.91,TARP,DOE-2,190.92,141.21,98.85,42.36,6,1,0,Yes
 Zone Information, BLOCKS-964_MULTIFAMILY_1_NORTH PERIMETER,0.0,0.00,0.00,0.00,20.58,-5.48,1.52,1,1,1,16.97,24.56,-14.13,2.22,0.00,3.05,3.05,172.02,TARP,DOE-2,56.44,51.56,36.09,15.47,6,1,0,Yes
 Zone Information, BLOCKS-964_MULTIFAMILY_1_SOUTH PERIMETER,0.0,0.00,0.00,0.00,-20.58,5.48,1.52,1,1,1,-24.56,-16.97,-2.22,14.13,0.00,3.05,3.05,172.02,TARP,DOE-2,56.44,51.56,36.09,15.47,6,1,0,Yes
 Zone Information, BLOCKS-964_MULTIFAMILY_1_WEST PERIMETER,0.0,0.00,0.00,0.00,1.62,6.10,1.52,1,1,1,-20.21,24.56,-1.03,14.13,0.00,3.05,3.05,581.91,TARP,DOE-2,190.92,141.21,98.85,42.36,6,1,0,Yes
 Zone Information, BLOCKS-964_MULTIFAMILY_2_CORE,0.0,0.00,0.00,0.00,6.67E-017,1.45E-017,4.57,1,1,1,-18.97,18.97,-8.54,8.54,3.05,6.10,3.05,880.94,TARP,DOE-2,289.02,0.00,0.00,0.00,6,0,0,Yes
 Zone Information, BLOCKS-964_MULTIFAMILY_2_EAST PERIMETER,0.0,0.00,0.00,0.00,-1.62,-6.10,4.57,1,1,1,-24.56,20.21,-14.13,1.03,3.05,6.10,3.05,581.91,TARP,DOE-2,190.92,141.21,98.85,42.36,6,1,0,Yes
 Zone Information, BLOCKS-964_MULTIFAMILY_2_NORTH PERIMETER,0.0,0.00,0.00,0.00,20.58,-5.48,4.57,1,1,1,16.97,24.56,-14.13,2.22,3.05,6.10,3.05,172.02,TARP,DOE-2,56.44,51.56,36.09,15.47,6,1,0,Yes
 Zone Information, BLOCKS-964_MULTIFAMILY_2_SOUTH PERIMETER,0.0,0.00,0.00,0.00,-20.58,5.48,4.57,1,1,1,-24.56,-16.97,-2.22,14.13,3.05,6.10,3.05,172.02,TARP,DOE-2,56.44,51.56,36.09,15.47,6,1,0,Yes
 Zone Information, BLOCKS-964_MULTIFAMILY_2_WEST PERIMETER,0.0,0.00,0.00,0.00,1.62,6.10,4.57,1,1,1,-20.21,24.56,-1.03,14.13,3.05,6.10,3.05,581.91,TARP,DOE-2,190.92,141.21,98.85,42.36,6,1,0,Yes
 Zone Information, BLOCKS-964_MULTIFAMILY_3_CORE,0.0,0.00,0.00,0.00,0.00,-5.22E-017,7.62,1,1,1,-18.97,18.97,-8.54,8.54,6.10,9.14,3.05,880.94,TARP,DOE-2,289.02,0.00,0.00,0.00,6,0,0,Yes
 Zone Information, BLOCKS-964_MULTIFAMILY_3_EAST PERIMETER,0.0,0.00,0.00,0.00,-1.62,-6.10,7.62,1,1,1,-24.56,20.21,-14.13,1.03,6.10,9.14,3.05,581.91,TARP,DOE-2,190.92,141.21,98.85,42.36,6,1,0,Yes
 Zone Information, BLOCKS-964_MULTIFAMILY_3_NORTH PERIMETER,0.0,0.00,0.00,0.00,20.58,-5.48,7.62,1,1,1,16.97,24.56,-14.13,2.22,6.10,9.14,3.05,172.02,TARP,DOE-2,56.44,51.56,36.09,15.47,6,1,0,Yes
 Zone Information, BLOCKS-964_MULTIFAMILY_3_SOUTH PERIMETER,0.0,0.00,0.00,0.00,-20.58,5.48,7.62,1,1,1,-24.56,-16.97,-2.22,14.13,6.10,9.14,3.05,172.02,TARP,DOE-2,56.44,51.56,36.09,15.47,6,1,0,Yes
 Zone Information, BLOCKS-964_MULTIFAMILY_3_WEST PERIMETER,0.0,0.00,0.00,0.00,1.62,6.10,7.62,1,1,1,-20.21,24.56,-1.03,14.13,6.10,9.14,3.05,581.91,TARP,DOE-2,190.92,141.21,98.85,42.36,6,1,0,Yes
 Zone Information, BLOCKS-964_MULTIFAMILY_4_CORE,0.0,0.00,0.00,0.00,0.00,-1.88E-017,10.67,1,1,1,-18.97,18.97,-8.54,8.54,9.14,12.19,3.05,880.94,TARP,DOE-2,289.02,0.00,0.00,0.00,6,0,0,Yes
 Zone Information, BLOCKS-964_MULTIFAMILY_4_EAST PERIMETER,0.0,0.00,0.00,0.00,-1.62,-6.10,10.67,1,1,1,-24.56,20.21,-14.13,1.03,9.14,12.19,3.05,581.91,TARP,DOE-2,190.92,141.21,98.85,42.36,6,1,0,Yes
 Zone Information, BLOCKS-964_MULTIFAMILY_4_NORTH PERIMETER,0.0,0.00,0.00,0.00,20.58,-5.48,10.67,1,1,1,16.97,24.56,-14.13,2.22,9.14,12.19,3.05,172.02,TARP,DOE-2,56.44,51.56,36.09,15.47,6,1,0,Yes
 Zone Information, BLOCKS-964_MULTIFAMILY_4_SOUTH PERIMETER,0.0,0.00,0.00,0.00,-20.58,5.48,10.67,1,1,1,-24.56,-16.97,-2.22,14.13,9.14,12.19,3.05,172.02,TARP,DOE-2,56.44,51.56,36.09,15.47,6,1,0,Yes
 Zone Information, BLOCKS-964_MULTIFAMILY_4_WEST PERIMETER,0.0,0.00,0.00,0.00,1.62,6.10,10.67,1,1,1,-20.21,24.56,-1.03,14.13,9.14,12.19,3.05,581.91,TARP,DOE-2,190.92,141.21,98.85,42.36,6,1,0,Yes
 Zone Information, BLOCKS-964_MULTIFAMILY_5_CORE,0.0,0.00,0.00,0.00,6.67E-017,-2.15E-018,13.72,1,1,1,-18.97,18.97,-8.54,8.54,12.19,15.24,3.05,880.94,TARP,DOE-2,289.02,0.00,0.00,0.00,6,0,0,Yes
 Zone Information, BLOCKS-964_MULTIFAMILY_5_EAST PERIMETER,0.0,0.00,0.00,0.00,-1.62,-6.10,13.72,1,1,1,-24.56,20.21,-14.13,1.03,12.19,15.24,3.05,581.91,TARP,DOE-2,190.92,141.21,98.85,42.36,6,1,0,Yes
 Zone Information, BLOCKS-964_MULTIFAMILY_5_NORTH PERIMETER,0.0,0.00,0.00,0.00,20.58,-5.48,13.72,1,1,1,16.97,24.56,-14.13,2.22,12.19,15.24,3.05,172.02,TARP,DOE-2,56.44,51.56,36.09,15.47,6,1,0,Yes
 Zone Information, BLOCKS-964_MULTIFAMILY_5_SOUTH PERIMETER,0.0,0.00,0.00,0.00,-20.58,5.48,13.72,1,1,1,-24.56,-16.97,-2.22,14.13,12.19,15.24,3.05,172.02,TARP,DOE-2,56.44,51.56,36.09,15.47,6,1,0,Yes
 Zone Information, BLOCKS-964_MULTIFAMILY_5_WEST PERIMETER,0.0,0.00,0.00,0.00,1.62,6.10,13.72,1,1,1,-20.21,24.56,-1.03,14.13,12.19,15.24,3.05,581.91,TARP,DOE-2,190.92,141.21,98.85,42.36,6,1,0,Yes
 Zone Information, BLOCKS-964_MULTIFAMILY_6_CORE,0.0,0.00,0.00,0.00,0.00,-3.55E-017,16.76,1,1,1,-18.97,18.97,-8.54,8.54,15.24,18.29,3.05,880.94,TARP,DOE-2,289.02,0.00,0.00,0.00,6,0,0,Yes
 Zone Information, BLOCKS-964_MULTIFAMILY_6_EAST PERIMETER,0.0,0.00,0.00,0.00,-1.62,-6.10,16.76,1,1,1,-24.56,20.21,-14.13,1.03,15.24,18.29,3.05,581.91,TARP,DOE-2,190.92,141.21,98.85,42.36,6,1,0,Yes
 Zone Information, BLOCKS-964_MULTIFAMILY_6_NORTH PERIMETER,0.0,0.00,0.00,0.00,20.58,-5.48,16.76,1,1,1,16.97,24.56,-14.13,2.22,15.24,18.29,3.05,172.02,TARP,DOE-2,56.44,51.56,36.09,15.47,6,1,0,Yes
 Zone Information, BLOCKS-964_MULTIFAMILY_6_SOUTH PERIMETER,0.0,0.00,0.00,0.00,-20.58,5.48,16.76,1,1,1,-24.56,-16.97,-2.22,14.13,15.24,18.29,3.05,172.02,TARP,DOE-2,56.44,51.56,36.09,15.47,6,1,0,Yes
 Zone Information, BLOCKS-964_MULTIFAMILY_6_WEST PERIMETER,0.0,0.00,0.00,0.00,1.62,6.10,16.76,1,1,1,-20.21,24.56,-1.03,14.13,15.24,18.29,3.05,581.91,TARP,DOE-2,190.92,141.21,98.85,42.36,6,1,0,Yes
 Zone Information, BLOCKS-964_MULTIFAMILY_7_CORE,0.0,0.00,0.00,0.00,6.67E-017,1.45E-017,19.81,1,1,1,-18.97,18.97,-8.54,8.54,18.29,21.34,3.05,880.94,TARP,DOE-2,289.02,0.00,0.00,0.00,6,0,0,Yes
 Zone Information, BLOCKS-964_MULTIFAMILY_7_EAST PERIMETER,0.0,0.00,0.00,0.00,-1.62,-6.10,19.81,1,1,1,-24.56,20.21,-14.13,1.03,18.29,21.34,3.05,581.91,TARP,DOE-2,190.92,141.21,98.85,42.36,6,1,0,Yes
 Zone Information, BLOCKS-964_MULTIFAMILY_7_NORTH PERIMETER,0.0,0.00,0.00,0.00,20.58,-5.48,19.81,1,1,1,16.97,24.56,-14.13,2.22,18.29,21.34,3.05,172.02,TARP,DOE-2,56.44,51.56,36.09,15.47,6,1,0,Yes
 Zone Information, BLOCKS-964_MULTIFAMILY_7_SOUTH PERIMETER,0.0,0.00,0.00,0.00,-20.58,5.48,19.81,1,1,1,-24.56,-16.97,-2.22,14.13,18.29,21.34,3.05,172.02,TARP,DOE-2,56.44,51.56,36.09,15.47,6,1,0,Yes
 Zone Information, BLOCKS-964_MULTIFAMILY_7_WEST PERIMETER,0.0,0.00,0.00,0.00,1.62,6.10,19.81,1,1,1,-20.21,24.56,-1.03,14.13,18.29,21.34,3.05,581.91,TARP,DOE-2,190.92,141.21,98.85,42.36,6,1,0,Yes
 Zone Information, BLOCKS-964_MULTIFAMILY_8_CORE,0.0,0.00,0.00,0.00,0.00,-2.15E-018,22.86,1,1,1,-18.97,18.97,-8.54,8.54,21.34,24.38,3.05,880.94,TARP,DOE-2,289.02,0.00,0.00,0.00,6,0,0,Yes
 Zone Information, BLOCKS-964_MULTIFAMILY_8_EAST PERIMETER,0.0,0.00,0.00,0.00,-1.62,-6.10,22.86,1,1,1,-24.56,20.21,-14.13,1.03,21.34,24.38,3.05,581.91,TARP,DOE-2,190.92,141.21,98.85,42.36,6,1,0,Yes
 Zone Information, BLOCKS-964_MULTIFAMILY_8_NORTH PERIMETER,0.0,0.00,0.00,0.00,20.58,-5.48,22.86,1,1,1,16.97,24.56,-14.13,2.22,21.34,24.38,3.05,172.02,TARP,DOE-2,56.44,51.56,36.09,15.47,6,1,0,Yes
 Zone Information, BLOCKS-964_MULTIFAMILY_8_SOUTH PERIMETER,0.0,0.00,0.00,0.00,-20.58,5.48,22.86,1,1,1,-24.56,-16.97,-2.22,14.13,21.34,24.38,3.05,172.02,TARP,DOE-2,56.44,51.56,36.09,15.47,6,1,0,Yes
 Zone Information, BLOCKS-964_MULTIFAMILY_8_WEST PERIMETER,0.0,0.00,0.00,0.00,1.62,6.10,22.86,1,1,1,-20.21,24.56,-1.03,14.13,21.34,24.38,3.05,581.91,TARP,DOE-2,190.92,141.21,98.85,42.36,6,1,0,Yes
 Zone Information, BLOCKS-964_MULTIFAMILY_9_CORE,0.0,0.00,0.00,0.00,6.67E-017,-5.22E-017,25.91,1,1,1,-18.97,18.97,-8.54,8.54,24.38,27.43,3.05,880.94,TARP,DOE-2,289.02,0.00,0.00,0.00,6,0,0,Yes
 Zone Information, BLOCKS-964_MULTIFAMILY_9_EAST PERIMETER,0.0,0.00,0.00,0.00,-1.62,-6.10,25.91,1,1,1,-24.56,20.21,-14.13,1.03,24.38,27.43,3.05,581.91,TARP,DOE-2,190.92,141.21,98.85,42.36,6,1,0,Yes
 Zone Information, BLOCKS-964_MULTIFAMILY_9_NORTH PERIMETER,0.0,0.00,0.00,0.00,20.58,-5.48,25.91,1,1,1,16.97,24.56,-14.13,2.22,24.38,27.43,3.05,172.02,TARP,DOE-2,56.44,51.56,36.09,15.47,6,1,0,Yes
 Zone Information, BLOCKS-964_MULTIFAMILY_9_SOUTH PERIMETER,0.0,0.00,0.00,0.00,-20.58,5.48,25.91,1,1,1,-24.56,-16.97,-2.22,14.13,24.38,27.43,3.05,172.02,TARP,DOE-2,56.44,51.56,36.09,15.47,6,1,0,Yes
 Zone Information, BLOCKS-964_MULTIFAMILY_9_WEST PERIMETER,0.0,0.00,0.00,0.00,1.62,6.10,25.91,1,1,1,-20.21,24.56,-1.03,14.13,24.38,27.43,3.05,581.91,TARP,DOE-2,190.92,141.21,98.85,42.36,6,1,0,Yes
! <Zone Internal Gains Nominal>,Zone Name, Floor Area {m2},# Occupants,Area per Occupant {m2/person},Occupant per Area {person/m2},Interior Lighting {W/m2},Electric Load {W/m2},Gas Load {W/m2},Other Load {W/m2},Hot Water Eq {W/m2},Steam Equipment {W/m2},Sum Loads per Area {W/m2},Outdoor Controlled Baseboard Heat
 Zone Internal Gains Nominal, BLOCKS-964_MULTIFAMILY_10_CORE,289.02,8.2,35.303,2.833E-002,7.539,6.674,0.000,0.000,0.000,0.000,14.212,No
 Zone Internal Gains Nominal, BLOCKS-964_MULTIFAMILY_10_EAST PERIMETER,190.92,5.4,35.303,2.833E-002,7.539,6.674,0.000,0.000,0.000,0.000,14.212,No
 Zone Internal Gains Nominal, BLOCKS-964_MULTIFAMILY_10_NORTH PERIMETER,56.44,1.6,35.303,2.833E-002,7.539,6.674,0.000,0.000,0.000,0.000,14.212,No
 Zone Internal Gains Nominal, BLOCKS-964_MULTIFAMILY_10_SOUTH PERIMETER,56.44,1.6,35.303,2.833E-002,7.539,6.674,0.000,0.000,0.000,0.000,14.212,No
 Zone Internal Gains Nominal, BLOCKS-964_MULTIFAMILY_10_WEST PERIMETER,190.92,5.4,35.303,2.833E-002,7.539,6.674,0.000,0.000,0.000,0.000,14.212,No
 Zone Internal Gains Nominal, BLOCKS-964_MULTIFAMILY_1_CORE,289.02,8.2,35.303,2.833E-002,7.539,6.674,0.000,0.000,0.000,0.000,14.212,No
 Zone Internal Gains Nominal, BLOCKS-964_MULTIFAMILY_1_EAST PERIMETER,190.92,5.4,35.303,2.833E-002,7.539,6.674,0.000,0.000,0.000,0.000,14.212,No
 Zone Internal Gains Nominal, BLOCKS-964_MULTIFAMILY_1_NORTH PERIMETER,56.44,1.6,35.303,2.833E-002,7.539,6.674,0.000,0.000,0.000,0.000,14.212,No
 Zone Internal Gains Nominal, BLOCKS-964_MULTIFAMILY_1_SOUTH PERIMETER,56.44,1.6,35.303,2.833E-002,7.539,6.674,0.000,0.000,0.000,0.000,14.212,No
 Zone Internal Gains Nominal, BLOCKS-964_MULTIFAMILY_1_WEST PERIMETER,190.92,5.4,35.303,2.833E-002,7.539,6.674,0.000,0.000,0.000,0.000,14.212,No
 Zone Internal Gains Nominal, BLOCKS-964_MULTIFAMILY_2_CORE,289.02,8.2,35.303,2.833E-002,7.539,6.674,0.000,0.000,0.000,0.000,14.212,No
 Zone Internal Gains Nominal, BLOCKS-964_MULTIFAMILY_2_EAST PERIMETER,190.92,5.4,35.303,2.833E-002,7.539,6.674,0.000,0.000,0.000,0.000,14.212,No
 Zone Internal Gains Nominal, BLOCKS-964_MULTIFAMILY_2_NORTH PERIMETER,56.44,1.6,35.303,2.833E-002,7.539,6.674,0.000,0.000,0.000,0.000,14.212,No
 Zone Internal Gains Nominal, BLOCKS-964_MULTIFAMILY_2_SOUTH PERIMETER,56.44,1.6,35.303,2.833E-002,7.539,6.674,0.000,0.000,0.000,0.000,14.212,No
 Zone Internal Gains Nominal, BLOCKS-964_MULTIFAMILY_2_WEST PERIMETER,190.92,5.4,35.303,2.833E-002,7.539,6.674,0.000,0.000,0.000,0.000,14.212,No
 Zone Internal Gains Nominal, BLOCKS-964_MULTIFAMILY_3_CORE,289.02,8.2,35.303,2.833E-002,7.539,6.674,0.000,0.000,0.000,0.000,14.212,No
 Zone Internal Gains Nominal, BLOCKS-964_MULTIFAMILY_3_EAST PERIMETER,190.92,5.4,35.303,2.833E-002,7.539,6.674,0.000,0.000,0.000,0.000,14.212,No
 Zone Internal Gains Nominal, BLOCKS-964_MULTIFAMILY_3_NORTH PERIMETER,56.44,1.6,35.303,2.833E-002,7.539,6.674,0.000,0.000,0.000,0.000,14.212,No
 Zone Internal Gains Nominal, BLOCKS-964_MULTIFAMILY_3_SOUTH PERIMETER,56.44,1.6,35.303,2.833E-002,7.539,6.674,0.000,0.000,0.000,0.000,14.212,No
 Zone Internal Gains Nominal, BLOCKS-964_MULTIFAMILY_3_WEST PERIMETER,190.92,5.4,35.303,2.833E-002,7.539,6.674,0.000,0.000,0.000,0.000,14.212,No
 Zone Internal Gains Nominal, BLOCKS-964_MULTIFAMILY_4_CORE,289.02,8.2,35.303,2.833E-002,7.539,6.674,0.000,0.000,0.000,0.000,14.212,No
 Zone Internal Gains Nominal, BLOCKS-964_MULTIFAMILY_4_EAST PERIMETER,190.92,5.4,35.303,2.833E-002,7.539,6.674,0.000,0.000,0.000,0.000,14.212,No
 Zone Internal Gains Nominal, BLOCKS-964_MULTIFAMILY_4_NORTH PERIMETER,56.44,1.6,35.303,2.833E-002,7.539,6.674,0.000,0.000,0.000,0.000,14.212,No
 Zone Internal Gains Nominal, BLOCKS-964_MULTIFAMILY_4_SOUTH PERIMETER,56.44,1.6,35.303,2.833E-002,7.539,6.674,0.000,0.000,0.000,0.000,14.212,No
 Zone Internal Gains Nominal, BLOCKS-964_MULTIFAMILY_4_WEST PERIMETER,190.92,5.4,35.303,2.833E-002,7.539,6.674,0.000,0.000,0.000,0.000,14.212,No
 Zone Internal Gains Nominal, BLOCKS-964_MULTIFAMILY_5_CORE,289.02,8.2,35.303,2.833E-002,7.539,6.674,0.000,0.000,0.000,0.000,14.212,No
 Zone Internal Gains Nominal, BLOCKS-964_MULTIFAMILY_5_EAST PERIMETER,190.92,5.4,35.303,2.833E-002,7.539,6.674,0.000,0.000,0.000,0.000,14.212,No
 Zone Internal Gains Nominal, BLOCKS-964_MULTIFAMILY_5_NORTH PERIMETER,56.44,1.6,35.303,2.833E-002,7.539,6.674,0.000,0.000,0.000,0.000,14.212,No
 Zone Internal Gains Nominal, BLOCKS-964_MULTIFAMILY_5_SOUTH PERIMETER,56.44,1.6,35.303,2.833E-002,7.539,6.674,0.000,0.000,0.000,0.000,14.212,No
 Zone Internal Gains Nominal, BLOCKS-964_MULTIFAMILY_5_WEST PERIMETER,190.92,5.4,35.303,2.833E-002,7.539,6.674,0.000,0.000,0.000,0.000,14.212,No
 Zone Internal Gains Nominal, BLOCKS-964_MULTIFAMILY_6_CORE,289.02,8.2,35.303,2.833E-002,7.539,6.674,0.000,0.000,0.000,0.000,14.212,No
 Zone Internal Gains Nominal, BLOCKS-964_MULTIFAMILY_6_EAST PERIMETER,190.92,5.4,35.303,2.833E-002,7.539,6.674,0.000,0.000,0.000,0.000,14.212,No
 Zone Internal Gains Nominal, BLOCKS-964_MULTIFAMILY_6_NORTH PERIMETER,56.44,1.6,35.303,2.833E-002,7.539,6.674,0.000,0.000,0.000,0.000,14.212,No
 Zone Internal Gains Nominal, BLOCKS-964_MULTIFAMILY_6_SOUTH PERIMETER,56.44,1.6,35.303,2.833E-002,7.539,6.674,0.000,0.000,0.000,0.000,14.212,No
 Zone Internal Gains Nominal, BLOCKS-964_MULTIFAMILY_6_WEST PERIMETER,190.92,5.4,35.303,2.833E-002,7.539,6.674,0.000,0.000,0.000,0.000,14.212,No
 Zone Internal Gains Nominal, BLOCKS-964_MULTIFAMILY_7_CORE,289.02,8.2,35.303,2.833E-002,7.539,6.674,0.000,0.000,0.000,0.000,14.212,No
 Zone Internal Gains Nominal, BLOCKS-964_MULTIFAMILY_7_EAST PERIMETER,190.92,5.4,35.303,2.833E-002,7.539,6.674,0.000,0.000,0.000,0.000,14.212,No
 Zone Internal Gains Nominal, BLOCKS-964_MULTIFAMILY_7_NORTH PERIMETER,56.44,1.6,35.303,2.833E-002,7.539,6.674,0.000,0.000,0.000,0.000,14.212,No
 Zone Internal Gains Nominal, BLOCKS-964_MULTIFAMILY_7_SOUTH PERIMETER,56.44,1.6,35.303,2.833E-002,7.539,6.674,0.000,0.000,0.000,0.000,14.212,No
 Zone Internal Gains Nominal, BLOCKS-964_MULTIFAMILY_7_WEST PERIMETER,190.92,5.4,35.303,2.833E-002,7.539,6.674,0.000,0.000,0.000,0.000,14.212,No
 Zone Internal Gains Nominal, BLOCKS-964_MULTIFAMILY_8_CORE,289.02,8.2,35.303,2.833E-002,7.539,6.674,0.000,0.000,0.000,0.000,14.212,No
 Zone Internal Gains Nominal, BLOCKS-964_MULTIFAMILY_8_EAST PERIMETER,190.92,5.4,35.303,2.833E-002,7.539,6.674,0.000,0.000,0.000,0.000,14.212,No
 Zone Internal Gains Nominal, BLOCKS-964_MULTIFAMILY_8_NORTH PERIMETER,56.44,1.6,35.303,2.833E-002,7.539,6.674,0.000,0.000,0.000,0.000,14.212,No
 Zone Internal Gains Nominal, BLOCKS-964_MULTIFAMILY_8_SOUTH PERIMETER,56.44,1.6,35.303,2.833E-002,7.539,6.674,0.000,0.000,0.000,0.000,14.212,No
 Zone Internal Gains Nominal, BLOCKS-964_MULTIFAMILY_8_WEST PERIMETER,190.92,5.4,35.303,2.833E-002,7.539,6.674,0.000,0.000,0.000,0.000,14.212,No
 Zone Internal Gains Nominal, BLOCKS-964_MULTIFAMILY_9_CORE,289.02,8.2,35.303,2.833E-002,7.539,6.674,0.000,0.000,0.000,0.000,14.212,No
 Zone Internal Gains Nominal, BLOCKS-964_MULTIFAMILY_9_EAST PERIMETER,190.92,5.4,35.303,2.833E-002,7.539,6.674,0.000,0.000,0.000,0.000,14.212,No
 Zone Internal Gains Nominal, BLOCKS-964_MULTIFAMILY_9_NORTH PERIMETER,56.44,1.6,35.303,2.833E-002,7.539,6.674,0.000,0.000,0.000,0.000,14.212,No
 Zone Internal Gains Nominal, BLOCKS-964_MULTIFAMILY_9_SOUTH PERIMETER,56.44,1.6,35.303,2.833E-002,7.539,6.674,0.000,0.000,0.000,0.000,14.212,No
 Zone Internal Gains Nominal, BLOCKS-964_MULTIFAMILY_9_WEST PERIMETER,190.92,5.4,35.303,2.833E-002,7.539,6.674,0.000,0.000,0.000,0.000,14.212,No
! <People Internal Gains Nominal>,Name,Schedule Name,Zone Name,Zone Floor Area {m2},# Zone Occupants,Number of People {},People/Floor Area {person/m2},Floor Area per person {m2/person},Fraction Radiant,Fraction Convected,Sensible Fraction Calculation,Activity level,ASHRAE 55 Warnings,Carbon Dioxide Generation Rate,Nominal Minimum Number of People,Nominal Maximum Number of People
 People Internal Gains Nominal, BLOCKS-964_MULTIFAMILY_10_CORE PNNL_ASSET_RATING_APARTMENT_OCCUPANTS,PNNL_ASSET_RATING_APARTMENT_OCCUPANCY_SCHEDULE,BLOCKS-964_MULTIFAMILY_10_CORE,289.02,8.2,8.2,2.833E-002,35.303,0.300,0.700,0.500,PNNL_ASSET_RATING_APARTMENT_ACTIVITY_SCHEDULE,No,3.8200E-008,2,8
 People Internal Gains Nominal, BLOCKS-964_MULTIFAMILY_10_EAST PERIMETER PNNL_ASSET_RATING_APARTMENT_OCCUPANTS,PNNL_ASSET_RATING_APARTMENT_OCCUPANCY_SCHEDULE,BLOCKS-964_MULTIFAMILY_10_EAST PERIMETER,190.92,5.4,5.4,2.833E-002,35.303,0.300,0.700,0.500,PNNL_ASSET_RATING_APARTMENT_ACTIVITY_SCHEDULE,No,3.8200E-008,1,5
 People Internal Gains Nominal, BLOCKS-964_MULTIFAMILY_10_NORTH PERIMETER PNNL_ASSET_RATING_APARTMENT_OCCUPANTS,PNNL_ASSET_RATING_APARTMENT_OCCUPANCY_SCHEDULE,BLOCKS-964_MULTIFAMILY_10_NORTH PERIMETER,56.44,1.6,1.6,2.833E-002,35.303,0.300,0.700,0.500,PNNL_ASSET_RATING_APARTMENT_ACTIVITY_SCHEDULE,No,3.8200E-008,0,2
 People Internal Gains Nominal, BLOCKS-964_MULTIFAMILY_10_SOUTH PERIMETER PNNL_ASSET_RATING_APARTMENT_OCCUPANTS,PNNL_ASSET_RATING_APARTMENT_OCCUPANCY_SCHEDULE,BLOCKS-964_MULTIFAMILY_10_SOUTH PERIMETER,56.44,1.6,1.6,2.833E-002,35.303,0.300,0.700,0.500,PNNL_ASSET_RATING_APARTMENT_ACTIVITY_SCHEDULE,No,3.8200E-008,0,2
 People Internal Gains Nominal, BLOCKS-964_MULTIFAMILY_10_WEST PERIMETER PNNL_ASSET_RATING_APARTMENT_OCCUPANTS,PNNL_ASSET_RATING_APARTMENT_OCCUPANCY_SCHEDULE,BLOCKS-964_MULTIFAMILY_10_WEST PERIMETER,190.92,5.4,5.4,2.833E-002,35.303,0.300,0.700,0.500,PNNL_ASSET_RATING_APARTMENT_ACTIVITY_SCHEDULE,No,3.8200E-008,1,5
 People Internal Gains Nominal, BLOCKS-964_MULTIFAMILY_1_CORE PNNL_ASSET_RATING_APARTMENT_OCCUPANTS,PNNL_ASSET_RATING_APARTMENT_OCCUPANCY_SCHEDULE,BLOCKS-964_MULTIFAMILY_1_CORE,289.02,8.2,8.2,2.833E-002,35.303,0.300,0.700,0.500,PNNL_ASSET_RATING_APARTMENT_ACTIVITY_SCHEDULE,No,3.8200E-008,2,8
 People Internal Gains Nominal, BLOCKS-964_MULTIFAMILY_1_EAST PERIMETER PNNL_ASSET_RATING_APARTMENT_OCCUPANTS,PNNL_ASSET_RATING_APARTMENT_OCCUPANCY_SCHEDULE,BLOCKS-964_MULTIFAMILY_1_EAST PERIMETER,190.92,5.4,5.4,2.833E-002,35.303,0.300,0.700,0.500,PNNL_ASSET_RATING_APARTMENT_ACTIVITY_SCHEDULE,No,3.8200E-008,1,5
 People Internal Gains Nominal, BLOCKS-964_MULTIFAMILY_1_NORTH PERIMETER PNNL_ASSET_RATING_APARTMENT_OCCUPANTS,PNNL_ASSET_RATING_APARTMENT_OCCUPANCY_SCHEDULE,BLOCKS-964_MULTIFAMILY_1_NORTH PERIMETER,56.44,1.6,1.6,2.833E-002,35.303,0.300,0.700,0.500,PNNL_ASSET_RATING_APARTMENT_ACTIVITY_SCHEDULE,No,3.8200E-008,0,2
 People Internal Gains Nominal, BLOCKS-964_MULTIFAMILY_1_SOUTH PERIMETER PNNL_ASSET_RATING_APARTMENT_OCCUPANTS,PNNL_ASSET_RATING_APARTMENT_OCCUPANCY_SCHEDULE,BLOCKS-964_MULTIFAMILY_1_SOUTH PERIMETER,56.44,1.6,1.6,2.833E-002,35.303,0.300,0.700,0.500,PNNL_ASSET_RATING_APARTMENT_ACTIVITY_SCHEDULE,No,3.8200E-008,0,2
 People Internal Gains Nominal, BLOCKS-964_MULTIFAMILY_1_WEST PERIMETER PNNL_ASSET_RATING_APARTMENT_OCCUPANTS,PNNL_ASSET_RATING_APARTMENT_OCCUPANCY_SCHEDULE,BLOCKS-964_MULTIFAMILY_1_WEST PERIMETER,190.92,5.4,5.4,2.833E-002,35.303,0.300,0.700,0.500,PNNL_ASSET_RATING_APARTMENT_ACTIVITY_SCHEDULE,No,3.8200E-008,1,5
 People Internal Gains Nominal, BLOCKS-964_MULTIFAMILY_2_CORE PNNL_ASSET_RATING_APARTMENT_OCCUPANTS,PNNL_ASSET_RATING_APARTMENT_OCCUPANCY_SCHEDULE,BLOCKS-964_MULTIFAMILY_2_CORE,289.02,8.2,8.2,2.833E-002,35.303,0.300,0.700,0.500,PNNL_ASSET_RATING_APARTMENT_ACTIVITY_SCHEDULE,No,3.8200E-008,2,8
 People Internal Gains Nominal, BLOCKS-964_MULTIFAMILY_2_EAST PERIMETER PNNL_ASSET_RATING_APARTMENT_OCCUPANTS,PNNL_ASSET_RATING_APARTMENT_OCCUPANCY_SCHEDULE,BLOCKS-964_MULTIFAMILY_2_EAST PERIMETER,190.92,5.4,5.4,2.833E-002,35.303,0.300,0.700,0.500,PNNL_ASSET_RATING_APARTMENT_ACTIVITY_SCHEDULE,No,3.8200E-008,1,5
 People Internal Gains Nominal, BLOCKS-964_MULTIFAMILY_2_NORTH PERIMETER PNNL_ASSET_RATING_APARTMENT_OCCUPANTS,PNNL_ASSET_RATING_APARTMENT_OCCUPANCY_SCHEDULE,BLOCKS-964_MULTIFAMILY_2_NORTH PERIMETER,56.44,1.6,1.6,2.833E-002,35.303,0.300,0.700,0.500,PNNL_ASSET_RATING_APARTMENT_ACTIVITY_SCHEDULE,No,3.8200E-008,0,2
 People Internal Gains Nominal, BLOCKS-964_MULTIFAMILY_2_SOUTH PERIMETER PNNL_ASSET_RATING_APARTMENT_OCCUPANTS,PNNL_ASSET_RATING_APARTMENT_OCCUPANCY_SCHEDULE,BLOCKS-964_MULTIFAMILY_2_SOUTH PERIMETER,56.44,1.6,1.6,2.833E-002,35.303,0.300,0.700,0.500,PNNL_ASSET_RATING_APARTMENT_ACTIVITY_SCHEDULE,No,3.8200E-008,0,2
 People Internal Gains Nominal, BLOCKS-964_MULTIFAMILY_2_WEST PERIMETER PNNL_ASSET_RATING_APARTMENT_OCCUPANTS,PNNL_ASSET_RATING_APARTMENT_OCCUPANCY_SCHEDULE,BLOCKS-964_MULTIFAMILY_2_WEST PERIMETER,190.92,5.4,5.4,2.833E-002,35.303,0.300,0.700,0.500,PNNL_ASSET_RATING_APARTMENT_ACTIVITY_SCHEDULE,No,3.8200E-008,1,5
 People Internal Gains Nominal, BLOCKS-964_MULTIFAMILY_3_CORE PNNL_ASSET_RATING_APARTMENT_OCCUPANTS,PNNL_ASSET_RATING_APARTMENT_OCCUPANCY_SCHEDULE,BLOCKS-964_MULTIFAMILY_3_CORE,289.02,8.2,8.2,2.833E-002,35.303,0.300,0.700,0.500,PNNL_ASSET_RATING_APARTMENT_ACTIVITY_SCHEDULE,No,3.8200E-008,2,8
 People Internal Gains Nominal, BLOCKS-964_MULTIFAMILY_3_EAST PERIMETER PNNL_ASSET_RATING_APARTMENT_OCCUPANTS,PNNL_ASSET_RATING_APARTMENT_OCCUPANCY_SCHEDULE,BLOCKS-964_MULTIFAMILY_3_EAST PERIMETER,190.92,5.4,5.4,2.833E-002,35.303,0.300,0.700,0.500,PNNL_ASSET_RATING_APARTMENT_ACTIVITY_SCHEDULE,No,3.8200E-008,1,5
 People Internal Gains Nominal, BLOCKS-964_MULTIFAMILY_3_NORTH PERIMETER PNNL_ASSET_RATING_APARTMENT_OCCUPANTS,PNNL_ASSET_RATING_APARTMENT_OCCUPANCY_SCHEDULE,BLOCKS-964_MULTIFAMILY_3_NORTH PERIMETER,56.44,1.6,1.6,2.833E-002,35.303,0.300,0.700,0.500,PNNL_ASSET_RATING_APARTMENT_ACTIVITY_SCHEDULE,No,3.8200E-008,0,2
 People Internal Gains Nominal, BLOCKS-964_MULTIFAMILY_3_SOUTH PERIMETER PNNL_ASSET_RATING_APARTMENT_OCCUPANTS,PNNL_ASSET_RATING_APARTMENT_OCCUPANCY_SCHEDULE,BLOCKS-964_MULTIFAMILY_3_SOUTH PERIMETER,56.44,1.6,1.6,2.833E-002,35.303,0.300,0.700,0.500,PNNL_ASSET_RATING_APARTMENT_ACTIVITY_SCHEDULE,No,3.8200E-008,0,2
 People Internal Gains Nominal, BLOCKS-964_MULTIFAMILY_3_WEST PERIMETER PNNL_ASSET_RATING_APARTMENT_OCCUPANTS,PNNL_ASSET_RATING_APARTMENT_OCCUPANCY_SCHEDULE,BLOCKS-964_MULTIFAMILY_3_WEST PERIMETER,190.92,5.4,5.4,2.833E-002,35.303,0.300,0.700,0.500,PNNL_ASSET_RATING_APARTMENT_ACTIVITY_SCHEDULE,No,3.8200E-008,1,5
 People Internal Gains Nominal, BLOCKS-964_MULTIFAMILY_4_CORE PNNL_ASSET_RATING_APARTMENT_OCCUPANTS,PNNL_ASSET_RATING_APARTMENT_OCCUPANCY_SCHEDULE,BLOCKS-964_MULTIFAMILY_4_CORE,289.02,8.2,8.2,2.833E-002,35.303,0.300,0.700,0.500,PNNL_ASSET_RATING_APARTMENT_ACTIVITY_SCHEDULE,No,3.8200E-008,2,8
 People Internal Gains Nominal, BLOCKS-964_MULTIFAMILY_4_EAST PERIMETER PNNL_ASSET_RATING_APARTMENT_OCCUPANTS,PNNL_ASSET_RATING_APARTMENT_OCCUPANCY_SCHEDULE,BLOCKS-964_MULTIFAMILY_4_EAST PERIMETER,190.92,5.4,5.4,2.833E-002,35.303,0.300,0.700,0.500,PNNL_ASSET_RATING_APARTMENT_ACTIVITY_SCHEDULE,No,3.8200E-008,1,5
 People Internal Gains Nominal, BLOCKS-964_MULTIFAMILY_4_NORTH PERIMETER PNNL_ASSET_RATING_APARTMENT_OCCUPANTS,PNNL_ASSET_RATING_APARTMENT_OCCUPANCY_SCHEDULE,BLOCKS-964_MULTIFAMILY_4_NORTH PERIMETER,56.44,1.6,1.6,2.833E-002,35.303,0.300,0.700,0.500,PNNL_ASSET_RATING_APARTMENT_ACTIVITY_SCHEDULE,No,3.8200E-008,0,2
 People Internal Gains Nominal, BLOCKS-964_MULTIFAMILY_4_SOUTH PERIMETER PNNL_ASSET_RATING_APARTMENT_OCCUPANTS,PNNL_ASSET_RATING_APARTMENT_OCCUPANCY_SCHEDULE,BLOCKS-964_MULTIFAMILY_4_SOUTH PERIMETER,56.44,1.6,1.6,2.833E-002,35.303,0.300,0.700,0.500,PNNL_ASSET_RATING_APARTMENT_ACTIVITY_SCHEDULE,No,3.8200E-008,0,2
 People Internal Gains Nominal, BLOCKS-964_MULTIFAMILY_4_WEST PERIMETER PNNL_ASSET_RATING_APARTMENT_OCCUPANTS,PNNL_ASSET_RATING_APARTMENT_OCCUPANCY_SCHEDULE,BLOCKS-964_MULTIFAMILY_4_WEST PERIMETER,190.92,5.4,5.4,2.833E-002,35.303,0.300,0.700,0.500,PNNL_ASSET_RATING_APARTMENT_ACTIVITY_SCHEDULE,No,3.8200E-008,1,5
 People Internal Gains Nominal, BLOCKS-964_MULTIFAMILY_5_CORE PNNL_ASSET_RATING_APARTMENT_OCCUPANTS,PNNL_ASSET_RATING_APARTMENT_OCCUPANCY_SCHEDULE,BLOCKS-964_MULTIFAMILY_5_CORE,289.02,8.2,8.2,2.833E-002,35.303,0.300,0.700,0.500,PNNL_ASSET_RATING_APARTMENT_ACTIVITY_SCHEDULE,No,3.8200E-008,2,8
 People Internal Gains Nominal, BLOCKS-964_MULTIFAMILY_5_EAST PERIMETER PNNL_ASSET_RATING_APARTMENT_OCCUPANTS,PNNL_ASSET_RATING_APARTMENT_OCCUPANCY_SCHEDULE,BLOCKS-964_MULTIFAMILY_5_EAST PERIMETER,190.92,5.4,5.4,2.833E-002,35.303,0.300,0.700,0.500,PNNL_ASSET_RATING_APARTMENT_ACTIVITY_SCHEDULE,No,3.8200E-008,1,5
 People Internal Gains Nominal, BLOCKS-964_MULTIFAMILY_5_NORTH PERIMETER PNNL_ASSET_RATING_APARTMENT_OCCUPANTS,PNNL_ASSET_RATING_APARTMENT_OCCUPANCY_SCHEDULE,BLOCKS-964_MULTIFAMILY_5_NORTH PERIMETER,56.44,1.6,1.6,2.833E-002,35.303,0.300,0.700,0.500,PNNL_ASSET_RATING_APARTMENT_ACTIVITY_SCHEDULE,No,3.8200E-008,0,2
 People Internal Gains Nominal, BLOCKS-964_MULTIFAMILY_5_SOUTH PERIMETER PNNL_ASSET_RATING_APARTMENT_OCCUPANTS,PNNL_ASSET_RATING_APARTMENT_OCCUPANCY_SCHEDULE,BLOCKS-964_MULTIFAMILY_5_SOUTH PERIMETER,56.44,1.6,1.6,2.833E-002,35.303,0.300,0.700,0.500,PNNL_ASSET_RATING_APARTMENT_ACTIVITY_SCHEDULE,No,3.8200E-008,0,2
 People Internal Gains Nominal, BLOCKS-964_MULTIFAMILY_5_WEST PERIMETER PNNL_ASSET_RATING_APARTMENT_OCCUPANTS,PNNL_ASSET_RATING_APARTMENT_OCCUPANCY_SCHEDULE,BLOCKS-964_MULTIFAMILY_5_WEST PERIMETER,190.92,5.4,5.4,2.833E-002,35.303,0.300,0.700,0.500,PNNL_ASSET_RATING_APARTMENT_ACTIVITY_SCHEDULE,No,3.8200E-008,1,5
 People Internal Gains Nominal, BLOCKS-964_MULTIFAMILY_6_CORE PNNL_ASSET_RATING_APARTMENT_OCCUPANTS,PNNL_ASSET_RATING_APARTMENT_OCCUPANCY_SCHEDULE,BLOCKS-964_MULTIFAMILY_6_CORE,289.02,8.2,8.2,2.833E-002,35.303,0.300,0.700,0.500,PNNL_ASSET_RATING_APARTMENT_ACTIVITY_SCHEDULE,No,3.8200E-008,2,8
 People Internal Gains Nominal, BLOCKS-964_MULTIFAMILY_6_EAST PERIMETER PNNL_ASSET_RATING_APARTMENT_OCCUPANTS,PNNL_ASSET_RATING_APARTMENT_OCCUPANCY_SCHEDULE,BLOCKS-964_MULTIFAMILY_6_EAST PERIMETER,190.92,5.4,5.4,2.833E-002,35.303,0.300,0.700,0.500,PNNL_ASSET_RATING_APARTMENT_ACTIVITY_SCHEDULE,No,3.8200E-008,1,5
 People Internal Gains Nominal, BLOCKS-964_MULTIFAMILY_6_NORTH PERIMETER PNNL_ASSET_RATING_APARTMENT_OCCUPANTS,PNNL_ASSET_RATING_APARTMENT_OCCUPANCY_SCHEDULE,BLOCKS-964_MULTIFAMILY_6_NORTH PERIMETER,56.44,1.6,1.6,2.833E-002,35.303,0.300,0.700,0.500,PNNL_ASSET_RATING_APARTMENT_ACTIVITY_SCHEDULE,No,3.8200E-008,0,2
 People Internal Gains Nominal, BLOCKS-964_MULTIFAMILY_6_SOUTH PERIMETER PNNL_ASSET_RATING_APARTMENT_OCCUPANTS,PNNL_ASSET_RATING_APARTMENT_OCCUPANCY_SCHEDULE,BLOCKS-964_MULTIFAMILY_6_SOUTH PERIMETER,56.44,1.6,1.6,2.833E-002,35.303,0.300,0.700,0.500,PNNL_ASSET_RATING_APARTMENT_ACTIVITY_SCHEDULE,No,3.8200E-008,0,2
 People Internal Gains Nominal, BLOCKS-964_MULTIFAMILY_6_WEST PERIMETER PNNL_ASSET_RATING_APARTMENT_OCCUPANTS,PNNL_ASSET_RATING_APARTMENT_OCCUPANCY_SCHEDULE,BLOCKS-964_MULTIFAMILY_6_WEST PERIMETER,190.92,5.4,5.4,2.833E-002,35.303,0.300,0.700,0.500,PNNL_ASSET_RATING_APARTMENT_ACTIVITY_SCHEDULE,No,3.8200E-008,1,5
 People Internal Gains Nominal, BLOCKS-964_MULTIFAMILY_7_CORE PNNL_ASSET_RATING_APARTMENT_OCCUPANTS,PNNL_ASSET_RATING_APARTMENT_OCCUPANCY_SCHEDULE,BLOCKS-964_MULTIFAMILY_7_CORE,289.02,8.2,8.2,2.833E-002,35.303,0.300,0.700,0.500,PNNL_ASSET_RATING_APARTMENT_ACTIVITY_SCHEDULE,No,3.8200E-008,2,8
 People Internal Gains Nominal, BLOCKS-964_MULTIFAMILY_7_EAST PERIMETER PNNL_ASSET_RATING_APARTMENT_OCCUPANTS,PNNL_ASSET_RATING_APARTMENT_OCCUPANCY_SCHEDULE,BLOCKS-964_MULTIFAMILY_7_EAST PERIMETER,190.92,5.4,5.4,2.833E-002,35.303,0.300,0.700,0.500,PNNL_ASSET_RATING_APARTMENT_ACTIVITY_SCHEDULE,No,3.8200E-008,1,5
 People Internal Gains Nominal, BLOCKS-964_MULTIFAMILY_7_NORTH PERIMETER PNNL_ASSET_RATING_APARTMENT_OCCUPANTS,PNNL_ASSET_RATING_APARTMENT_OCCUPANCY_SCHEDULE,BLOCKS-964_MULTIFAMILY_7_NORTH PERIMETER,56.44,1.6,1.6,2.833E-002,35.303,0.300,0.700,0.500,PNNL_ASSET_RATING_APARTMENT_ACTIVITY_SCHEDULE,No,3.8200E-008,0,2
 People Internal Gains Nominal, BLOCKS-964_MULTIFAMILY_7_SOUTH PERIMETER PNNL_ASSET_RATING_APARTMENT_OCCUPANTS,PNNL_ASSET_RATING_APARTMENT_OCCUPANCY_SCHEDULE,BLOCKS-964_MULTIFAMILY_7_SOUTH PERIMETER,56.44,1.6,1.6,2.833E-002,35.303,0.300,0.700,0.500,PNNL_ASSET_RATING_APARTMENT_ACTIVITY_SCHEDULE,No,3.8200E-008,0,2
 People Internal Gains Nominal, BLOCKS-964_MULTIFAMILY_7_WEST PERIMETER PNNL_ASSET_RATING_APARTMENT_OCCUPANTS,PNNL_ASSET_RATING_APARTMENT_OCCUPANCY_SCHEDULE,BLOCKS-964_MULTIFAMILY_7_WEST PERIMETER,190.92,5.4,5.4,2.833E-002,35.303,0.300,0.700,0.500,PNNL_ASSET_RATING_APARTMENT_ACTIVITY_SCHEDULE,No,3.8200E-008,1,5
 People Internal Gains Nominal, BLOCKS-964_MULTIFAMILY_8_CORE PNNL_ASSET_RATING_APARTMENT_OCCUPANTS,PNNL_ASSET_RATING_APARTMENT_OCCUPANCY_SCHEDULE,BLOCKS-964_MULTIFAMILY_8_CORE,289.02,8.2,8.2,2.833E-002,35.303,0.300,0.700,0.500,PNNL_ASSET_RATING_APARTMENT_ACTIVITY_SCHEDULE,No,3.8200E-008,2,8
 People Internal Gains Nominal, BLOCKS-964_MULTIFAMILY_8_EAST PERIMETER PNNL_ASSET_RATING_APARTMENT_OCCUPANTS,PNNL_ASSET_RATING_APARTMENT_OCCUPANCY_SCHEDULE,BLOCKS-964_MULTIFAMILY_8_EAST PERIMETER,190.92,5.4,5.4,2.833E-002,35.303,0.300,0.700,0.500,PNNL_ASSET_RATING_APARTMENT_ACTIVITY_SCHEDULE,No,3.8200E-008,1,5
 People Internal Gains Nominal, BLOCKS-964_MULTIFAMILY_8_NORTH PERIMETER PNNL_ASSET_RATING_APARTMENT_OCCUPANTS,PNNL_ASSET_RATING_APARTMENT_OCCUPANCY_SCHEDULE,BLOCKS-964_MULTIFAMILY_8_NORTH PERIMETER,56.44,1.6,1.6,2.833E-002,35.303,0.300,0.700,0.500,PNNL_ASSET_RATING_APARTMENT_ACTIVITY_SCHEDULE,No,3.8200E-008,0,2
 People Internal Gains Nominal, BLOCKS-964_MULTIFAMILY_8_SOUTH PERIMETER PNNL_ASSET_RATING_APARTMENT_OCCUPANTS,PNNL_ASSET_RATING_APARTMENT_OCCUPANCY_SCHEDULE,BLOCKS-964_MULTIFAMILY_8_SOUTH PERIMETER,56.44,1.6,1.6,2.833E-002,35.303,0.300,0.700,0.500,PNNL_ASSET_RATING_APARTMENT_ACTIVITY_SCHEDULE,No,3.8200E-008,0,2
 People Internal Gains Nominal, BLOCKS-964_MULTIFAMILY_8_WEST PERIMETER PNNL_ASSET_RATING_APARTMENT_OCCUPANTS,PNNL_ASSET_RATING_APARTMENT_OCCUPANCY_SCHEDULE,BLOCKS-964_MULTIFAMILY_8_WEST PERIMETER,190.92,5.4,5.4,2.833E-002,35.303,0.300,0.700,0.500,PNNL_ASSET_RATING_APARTMENT_ACTIVITY_SCHEDULE,No,3.8200E-008,1,5
 People Internal Gains Nominal, BLOCKS-964_MULTIFAMILY_9_CORE PNNL_ASSET_RATING_APARTMENT_OCCUPANTS,PNNL_ASSET_RATING_APARTMENT_OCCUPANCY_SCHEDULE,BLOCKS-964_MULTIFAMILY_9_CORE,289.02,8.2,8.2,2.833E-002,35.303,0.300,0.700,0.500,PNNL_ASSET_RATING_APARTMENT_ACTIVITY_SCHEDULE,No,3.8200E-008,2,8
 People Internal Gains Nominal, BLOCKS-964_MULTIFAMILY_9_EAST PERIMETER PNNL_ASSET_RATING_APARTMENT_OCCUPANTS,PNNL_ASSET_RATING_APARTMENT_OCCUPANCY_SCHEDULE,BLOCKS-964_MULTIFAMILY_9_EAST PERIMETER,190.92,5.4,5.4,2.833E-002,35.303,0.300,0.700,0.500,PNNL_ASSET_RATING_APARTMENT_ACTIVITY_SCHEDULE,No,3.8200E-008,1,5
 People Internal Gains Nominal, BLOCKS-964_MULTIFAMILY_9_NORTH PERIMETER PNNL_ASSET_RATING_APARTMENT_OCCUPANTS,PNNL_ASSET_RATING_APARTMENT_OCCUPANCY_SCHEDULE,BLOCKS-964_MULTIFAMILY_9_NORTH PERIMETER,56.44,1.6,1.6,2.833E-002,35.303,0.300,0.700,0.500,PNNL_ASSET_RATING_APARTMENT_ACTIVITY_SCHEDULE,No,3.8200E-008,0,2
 People Internal Gains Nominal, BLOCKS-964_MULTIFAMILY_9_SOUTH PERIMETER PNNL_ASSET_RATING_APARTMENT_OCCUPANTS,PNNL_ASSET_RATING_APARTMENT_OCCUPANCY_SCHEDULE,BLOCKS-964_MULTIFAMILY_9_SOUTH PERIMETER,56.44,1.6,1.6,2.833E-002,35.303,0.300,0.700,0.500,PNNL_ASSET_RATING_APARTMENT_ACTIVITY_SCHEDULE,No,3.8200E-008,0,2
 People Internal Gains Nominal, BLOCKS-964_MULTIFAMILY_9_WEST PERIMETER PNNL_ASSET_RATING_APARTMENT_OCCUPANTS,PNNL_ASSET_RATING_APARTMENT_OCCUPANCY_SCHEDULE,BLOCKS-964_MULTIFAMILY_9_WEST PERIMETER,190.92,5.4,5.4,2.833E-002,35.303,0.300,0.700,0.500,PNNL_ASSET_RATING_APARTMENT_ACTIVITY_SCHEDULE,No,3.8200E-008,1,5
! <Lights Internal Gains Nominal>,Name,Schedule Name,Zone Name,Zone Floor Area {m2},# Zone Occupants,Lighting Level {W},Lights/Floor Area {W/m2},Lights per person {W/person},Fraction Return Air,Fraction Radiant,Fraction Short Wave,Fraction Convected,Fraction Replaceable,End-Use Category,Nominal Minimum Lighting Level {W},Nominal Maximum Lighting Level {W}
 Lights Internal Gains Nominal, PNNL_ASSET_RATING_APARTMENT_LIGHTS 50,PNNL_ASSET_RATING_APARTMENT_LIGHTING_SCHEDULE,BLOCKS-964_MULTIFAMILY_10_CORE,289.02,8.2,2178.798,7.539,266.134,0.000,0.370,0.180,0.450,1.000,General,145.253,2178.798
 Lights Internal Gains Nominal, PNNL_ASSET_RATING_APARTMENT_LIGHTS 48,PNNL_ASSET_RATING_APARTMENT_LIGHTING_SCHEDULE,BLOCKS-964_MULTIFAMILY_10_EAST PERIMETER,190.92,5.4,1439.225,7.539,266.134,0.000,0.370,0.180,0.450,1.000,General,95.948,1439.225
 Lights Internal Gains Nominal, PNNL_ASSET_RATING_APARTMENT_LIGHTS 47,PNNL_ASSET_RATING_APARTMENT_LIGHTING_SCHEDULE,BLOCKS-964_MULTIFAMILY_10_NORTH PERIMETER,56.44,1.6,425.464,7.539,266.134,0.000,0.370,0.180,0.450,1.000,General,28.364,425.464
 Lights Internal Gains Nominal, PNNL_ASSET_RATING_APARTMENT_LIGHTS 49,PNNL_ASSET_RATING_APARTMENT_LIGHTING_SCHEDULE,BLOCKS-964_MULTIFAMILY_10_SOUTH PERIMETER,56.44,1.6,425.464,7.539,266.134,0.000,0.370,0.180,0.450,1.000,General,28.364,425.464
 Lights Internal Gains Nominal, PNNL_ASSET_RATING_APARTMENT_LIGHTS 46,PNNL_ASSET_RATING_APARTMENT_LIGHTING_SCHEDULE,BLOCKS-964_MULTIFAMILY_10_WEST PERIMETER,190.92,5.4,1439.225,7.539,266.134,0.000,0.370,0.180,0.450,1.000,General,95.948,1439.225
 Lights Internal Gains Nominal, PNNL_ASSET_RATING_APARTMENT_LIGHTS 5,PNNL_ASSET_RATING_APARTMENT_LIGHTING_SCHEDULE,BLOCKS-964_MULTIFAMILY_1_CORE,289.02,8.2,2178.798,7.539,266.134,0.000,0.370,0.180,0.450,1.000,General,145.253,2178.798
 Lights Internal Gains Nominal, PNNL_ASSET_RATING_APARTMENT_LIGHTS 3,PNNL_ASSET_RATING_APARTMENT_LIGHTING_SCHEDULE,BLOCKS-964_MULTIFAMILY_1_EAST PERIMETER,190.92,5.4,1439.225,7.539,266.134,0.000,0.370,0.180,0.450,1.000,General,95.948,1439.225
 Lights Internal Gains Nominal, PNNL_ASSET_RATING_APARTMENT_LIGHTS 2,PNNL_ASSET_RATING_APARTMENT_LIGHTING_SCHEDULE,BLOCKS-964_MULTIFAMILY_1_NORTH PERIMETER,56.44,1.6,425.464,7.539,266.134,0.000,0.370,0.180,0.450,1.000,General,28.364,425.464
 Lights Internal Gains Nominal, PNNL_ASSET_RATING_APARTMENT_LIGHTS 4,PNNL_ASSET_RATING_APARTMENT_LIGHTING_SCHEDULE,BLOCKS-964_MULTIFAMILY_1_SOUTH PERIMETER,56.44,1.6,425.464,7.539,266.134,0.000,0.370,0.180,0.450,1.000,General,28.364,425.464
 Lights Internal Gains Nominal, PNNL_ASSET_RATING_APARTMENT_LIGHTS 1,PNNL_ASSET_RATING_APARTMENT_LIGHTING_SCHEDULE,BLOCKS-964_MULTIFAMILY_1_WEST PERIMETER,190.92,5.4,1439.225,7.539,266.134,0.000,0.370,0.180,0.450,1.000,General,95.948,1439.225
 Lights Internal Gains Nominal, PNNL_ASSET_RATING_APARTMENT_LIGHTS 10,PNNL_ASSET_RATING_APARTMENT_LIGHTING_SCHEDULE,BLOCKS-964_MULTIFAMILY_2_CORE,289.02,8.2,2178.798,7.539,266.134,0.000,0.370,0.180,0.450,1.000,General,145.253,2178.798
 Lights Internal Gains Nominal, PNNL_ASSET_RATING_APARTMENT_LIGHTS 8,PNNL_ASSET_RATING_APARTMENT_LIGHTING_SCHEDULE,BLOCKS-964_MULTIFAMILY_2_EAST PERIMETER,190.92,5.4,1439.225,7.539,266.134,0.000,0.370,0.180,0.450,1.000,General,95.948,1439.225
 Lights Internal Gains Nominal, PNNL_ASSET_RATING_APARTMENT_LIGHTS 7,PNNL_ASSET_RATING_APARTMENT_LIGHTING_SCHEDULE,BLOCKS-964_MULTIFAMILY_2_NORTH PERIMETER,56.44,1.6,425.464,7.539,266.134,0.000,0.370,0.180,0.450,1.000,General,28.364,425.464
 Lights Internal Gains Nominal, PNNL_ASSET_RATING_APARTMENT_LIGHTS 9,PNNL_ASSET_RATING_APARTMENT_LIGHTING_SCHEDULE,BLOCKS-964_MULTIFAMILY_2_SOUTH PERIMETER,56.44,1.6,425.464,7.539,266.134,0.000,0.370,0.180,0.450,1.000,General,28.364,425.464
 Lights Internal Gains Nominal, PNNL_ASSET_RATING_APARTMENT_LIGHTS 6,PNNL_ASSET_RATING_APARTMENT_LIGHTING_SCHEDULE,BLOCKS-964_MULTIFAMILY_2_WEST PERIMETER,190.92,5.4,1439.225,7.539,266.134,0.000,0.370,0.180,0.450,1.000,General,95.948,1439.225
 Lights Internal Gains Nominal, PNNL_ASSET_RATING_APARTMENT_LIGHTS 15,PNNL_ASSET_RATING_APARTMENT_LIGHTING_SCHEDULE,BLOCKS-964_MULTIFAMILY_3_CORE,289.02,8.2,2178.798,7.539,266.134,0.000,0.370,0.180,0.450,1.000,General,145.253,2178.798
 Lights Internal Gains Nominal, PNNL_ASSET_RATING_APARTMENT_LIGHTS 13,PNNL_ASSET_RATING_APARTMENT_LIGHTING_SCHEDULE,BLOCKS-964_MULTIFAMILY_3_EAST PERIMETER,190.92,5.4,1439.225,7.539,266.134,0.000,0.370,0.180,0.450,1.000,General,95.948,1439.225
 Lights Internal Gains Nominal, PNNL_ASSET_RATING_APARTMENT_LIGHTS 12,PNNL_ASSET_RATING_APARTMENT_LIGHTING_SCHEDULE,BLOCKS-964_MULTIFAMILY_3_NORTH PERIMETER,56.44,1.6,425.464,7.539,266.134,0.000,0.370,0.180,0.450,1.000,General,28.364,425.464
 Lights Internal Gains Nominal, PNNL_ASSET_RATING_APARTMENT_LIGHTS 14,PNNL_ASSET_RATING_APARTMENT_LIGHTING_SCHEDULE,BLOCKS-964_MULTIFAMILY_3_SOUTH PERIMETER,56.44,1.6,425.464,7.539,266.134,0.000,0.370,0.180,0.450,1.000,General,28.364,425.464
 Lights Internal Gains Nominal, PNNL_ASSET_RATING_APARTMENT_LIGHTS 11,PNNL_ASSET_RATING_APARTMENT_LIGHTING_SCHEDULE,BLOCKS-964_MULTIFAMILY_3_WEST PERIMETER,190.92,5.4,1439.225,7.539,266.134,0.000,0.370,0.180,0.450,1.000,General,95.948,1439.225
 Lights Internal Gains Nominal, PNNL_ASSET_RATING_APARTMENT_LIGHTS 20,PNNL_ASSET_RATING_APARTMENT_LIGHTING_SCHEDULE,BLOCKS-964_MULTIFAMILY_4_CORE,289.02,8.2,2178.798,7.539,266.134,0.000,0.370,0.180,0.450,1.000,General,145.253,2178.798
 Lights Internal Gains Nominal, PNNL_ASSET_RATING_APARTMENT_LIGHTS 18,PNNL_ASSET_RATING_APARTMENT_LIGHTING_SCHEDULE,BLOCKS-964_MULTIFAMILY_4_EAST PERIMETER,190.92,5.4,1439.225,7.539,266.134,0.000,0.370,0.180,0.450,1.000,General,95.948,1439.225
 Lights Internal Gains Nominal, PNNL_ASSET_RATING_APARTMENT_LIGHTS 17,PNNL_ASSET_RATING_APARTMENT_LIGHTING_SCHEDULE,BLOCKS-964_MULTIFAMILY_4_NORTH PERIMETER,56.44,1.6,425.464,7.539,266.134,0.000,0.370,0.180,0.450,1.000,General,28.364,425.464
 Lights Internal Gains Nominal, PNNL_ASSET_RATING_APARTMENT_LIGHTS 19,PNNL_ASSET_RATING_APARTMENT_LIGHTING_SCHEDULE,BLOCKS-964_MULTIFAMILY_4_SOUTH PERIMETER,56.44,1.6,425.464,7.539,266.134,0.000,0.370,0.180,0.450,1.000,General,28.364,425.464
 Lights Internal Gains Nominal, PNNL_ASSET_RATING_APARTMENT_LIGHTS 16,PNNL_ASSET_RATING_APARTMENT_LIGHTING_SCHEDULE,BLOCKS-964_MULTIFAMILY_4_WEST PERIMETER,190.92,5.4,1439.225,7.539,266.134,0.000,0.370,0.180,0.450,1.000,General,95.948,1439.225
 Lights Internal Gains Nominal, PNNL_ASSET_RATING_APARTMENT_LIGHTS 25,PNNL_ASSET_RATING_APARTMENT_LIGHTING_SCHEDULE,BLOCKS-964_MULTIFAMILY_5_CORE,289.02,8.2,2178.798,7.539,266.134,0.000,0.370,0.180,0.450,1.000,General,145.253,2178.798
 Lights Internal Gains Nominal, PNNL_ASSET_RATING_APARTMENT_LIGHTS 23,PNNL_ASSET_RATING_APARTMENT_LIGHTING_SCHEDULE,BLOCKS-964_MULTIFAMILY_5_EAST PERIMETER,190.92,5.4,1439.225,7.539,266.134,0.000,0.370,0.180,0.450,1.000,General,95.948,1439.225
 Lights Internal Gains Nominal, PNNL_ASSET_RATING_APARTMENT_LIGHTS 22,PNNL_ASSET_RATING_APARTMENT_LIGHTING_SCHEDULE,BLOCKS-964_MULTIFAMILY_5_NORTH PERIMETER,56.44,1.6,425.464,7.539,266.134,0.000,0.370,0.180,0.450,1.000,General,28.364,425.464
 Lights Internal Gains Nominal, PNNL_ASSET_RATING_APARTMENT_LIGHTS 24,PNNL_ASSET_RATING_APARTMENT_LIGHTING_SCHEDULE,BLOCKS-964_MULTIFAMILY_5_SOUTH PERIMETER,56.44,1.6,425.464,7.539,266.134,0.000,0.370,0.180,0.450,1.000,General,28.364,425.464
 Lights Internal Gains Nominal, PNNL_ASSET_RATING_APARTMENT_LIGHTS 21,PNNL_ASSET_RATING_APARTMENT_LIGHTING_SCHEDULE,BLOCKS-964_MULTIFAMILY_5_WEST PERIMETER,190.92,5.4,1439.225,7.539,266.134,0.000,0.370,0.180,0.450,1.000,General,95.948,1439.225
 Lights Internal Gains Nominal, PNNL_ASSET_RATING_APARTMENT_LIGHTS 30,PNNL_ASSET_RATING_APARTMENT_LIGHTING_SCHEDULE,BLOCKS-964_MULTIFAMILY_6_CORE,289.02,8.2,2178.798,7.539,266.134,0.000,0.370,0.180,0.450,1.000,General,145.253,2178.798
 Lights Internal Gains Nominal, PNNL_ASSET_RATING_APARTMENT_LIGHTS 28,PNNL_ASSET_RATING_APARTMENT_LIGHTING_SCHEDULE,BLOCKS-964_MULTIFAMILY_6_EAST PERIMETER,190.92,5.4,1439.225,7.539,266.134,0.000,0.370,0.180,0.450,1.000,General,95.948,1439.225
 Lights Internal Gains Nominal, PNNL_ASSET_RATING_APARTMENT_LIGHTS 27,PNNL_ASSET_RATING_APARTMENT_LIGHTING_SCHEDULE,BLOCKS-964_MULTIFAMILY_6_NORTH PERIMETER,56.44,1.6,425.464,7.539,266.134,0.000,0.370,0.180,0.450,1.000,General,28.364,425.464
 Lights Internal Gains Nominal, PNNL_ASSET_RATING_APARTMENT_LIGHTS 29,PNNL_ASSET_RATING_APARTMENT_LIGHTING_SCHEDULE,BLOCKS-964_MULTIFAMILY_6_SOUTH PERIMETER,56.44,1.6,425.464,7.539,266.134,0.000,0.370,0.180,0.450,1.000,General,28.364,425.464
 Lights Internal Gains Nominal, PNNL_ASSET_RATING_APARTMENT_LIGHTS 26,PNNL_ASSET_RATING_APARTMENT_LIGHTING_SCHEDULE,BLOCKS-964_MULTIFAMILY_6_WEST PERIMETER,190.92,5.4,1439.225,7.539,266.134,0.000,0.370,0.180,0.450,1.000,General,95.948,1439.225
 Lights Internal Gains Nominal, PNNL_ASSET_RATING_APARTMENT_LIGHTS 35,PNNL_ASSET_RATING_APARTMENT_LIGHTING_SCHEDULE,BLOCKS-964_MULTIFAMILY_7_CORE,289.02,8.2,2178.798,7.539,266.134,0.000,0.370,0.180,0.450,1.000,General,145.253,2178.798
 Lights Internal Gains Nominal, PNNL_ASSET_RATING_APARTMENT_LIGHTS 33,PNNL_ASSET_RATING_APARTMENT_LIGHTING_SCHEDULE,BLOCKS-964_MULTIFAMILY_7_EAST PERIMETER,190.92,5.4,1439.225,7.539,266.134,0.000,0.370,0.180,0.450,1.000,General,95.948,1439.225
 Lights Internal Gains Nominal, PNNL_ASSET_RATING_APARTMENT_LIGHTS 32,PNNL_ASSET_RATING_APARTMENT_LIGHTING_SCHEDULE,BLOCKS-964_MULTIFAMILY_7_NORTH PERIMETER,56.44,1.6,425.464,7.539,266.134,0.000,0.370,0.180,0.450,1.000,General,28.364,425.464
 Lights Internal Gains Nominal, PNNL_ASSET_RATING_APARTMENT_LIGHTS 34,PNNL_ASSET_RATING_APARTMENT_LIGHTING_SCHEDULE,BLOCKS-964_MULTIFAMILY_7_SOUTH PERIMETER,56.44,1.6,425.464,7.539,266.134,0.000,0.370,0.180,0.450,1.000,General,28.364,425.464
 Lights Internal Gains Nominal, PNNL_ASSET_RATING_APARTMENT_LIGHTS 31,PNNL_ASSET_RATING_APARTMENT_LIGHTING_SCHEDULE,BLOCKS-964_MULTIFAMILY_7_WEST PERIMETER,190.92,5.4,1439.225,7.539,266.134,0.000,0.370,0.180,0.450,1.000,General,95.948,1439.225
 Lights Internal Gains Nominal, PNNL_ASSET_RATING_APARTMENT_LIGHTS 40,PNNL_ASSET_RATING_APARTMENT_LIGHTING_SCHEDULE,BLOCKS-964_MULTIFAMILY_8_CORE,289.02,8.2,2178.798,7.539,266.134,0.000,0.370,0.180,0.450,1.000,General,145.253,2178.798
 Lights Internal Gains Nominal, PNNL_ASSET_RATING_APARTMENT_LIGHTS 38,PNNL_ASSET_RATING_APARTMENT_LIGHTING_SCHEDULE,BLOCKS-964_MULTIFAMILY_8_EAST PERIMETER,190.92,5.4,1439.225,7.539,266.134,0.000,0.370,0.180,0.450,1.000,General,95.948,1439.225
 Lights Internal Gains Nominal, PNNL_ASSET_RATING_APARTMENT_LIGHTS 37,PNNL_ASSET_RATING_APARTMENT_LIGHTING_SCHEDULE,BLOCKS-964_MULTIFAMILY_8_NORTH PERIMETER,56.44,1.6,425.464,7.539,266.134,0.000,0.370,0.180,0.450,1.000,General,28.364,425.464
 Lights Internal Gains Nominal, PNNL_ASSET_RATING_APARTMENT_LIGHTS 39,PNNL_ASSET_RATING_APARTMENT_LIGHTING_SCHEDULE,BLOCKS-964_MULTIFAMILY_8_SOUTH PERIMETER,56.44,1.6,425.464,7.539,266.134,0.000,0.370,0.180,0.450,1.000,General,28.364,425.464
 Lights Internal Gains Nominal, PNNL_ASSET_RATING_APARTMENT_LIGHTS 36,PNNL_ASSET_RATING_APARTMENT_LIGHTING_SCHEDULE,BLOCKS-964_MULTIFAMILY_8_WEST PERIMETER,190.92,5.4,1439.225,7.539,266.134,0.000,0.370,0.180,0.450,1.000,General,95.948,1439.225
 Lights Internal Gains Nominal, PNNL_ASSET_RATING_APARTMENT_LIGHTS 45,PNNL_ASSET_RATING_APARTMENT_LIGHTING_SCHEDULE,BLOCKS-964_MULTIFAMILY_9_CORE,289.02,8.2,2178.798,7.539,266.134,0.000,0.370,0.180,0.450,1.000,General,145.253,2178.798
 Lights Internal Gains Nominal, PNNL_ASSET_RATING_APARTMENT_LIGHTS 43,PNNL_ASSET_RATING_APARTMENT_LIGHTING_SCHEDULE,BLOCKS-964_MULTIFAMILY_9_EAST PERIMETER,190.92,5.4,1439.225,7.539,266.134,0.000,0.370,0.180,0.450,1.000,General,95.948,1439.225
 Lights Internal Gains Nominal, PNNL_ASSET_RATING_APARTMENT_LIGHTS 42,PNNL_ASSET_RATING_APARTMENT_LIGHTING_SCHEDULE,BLOCKS-964_MULTIFAMILY_9_NORTH PERIMETER,56.44,1.6,425.464,7.539,266.134,0.000,0.370,0.180,0.450,1.000,General,28.364,425.464
 Lights Internal Gains Nominal, PNNL_ASSET_RATING_APARTMENT_LIGHTS 44,PNNL_ASSET_RATING_APARTMENT_LIGHTING_SCHEDULE,BLOCKS-964_MULTIFAMILY_9_SOUTH PERIMETER,56.44,1.6,425.464,7.539,266.134,0.000,0.370,0.180,0.450,1.000,General,28.364,425.464
 Lights Internal Gains Nominal, PNNL_ASSET_RATING_APARTMENT_LIGHTS 41,PNNL_ASSET_RATING_APARTMENT_LIGHTING_SCHEDULE,BLOCKS-964_MULTIFAMILY_9_WEST PERIMETER,190.92,5.4,1439.225,7.539,266.134,0.000,0.370,0.180,0.450,1.000,General,95.948,1439.225
 Lights Internal Gains Nominal, BLOCKS-964_MULTIFAMILY_10_CORE PNNL_ASSET_RATING_APARTMENT_LIGHTS,PNNL_ASSET_RATING_APARTMENT_LIGHTING_SCHEDULE,BLOCKS-964_MULTIFAMILY_10_CORE,289.02,8.2,0.000,0.000,0.000,0.000,0.370,0.180,0.450,1.000,General,0.000,0.000
 Lights Internal Gains Nominal, BLOCKS-964_MULTIFAMILY_10_EAST PERIMETER PNNL_ASSET_RATING_APARTMENT_LIGHTS,PNNL_ASSET_RATING_APARTMENT_LIGHTING_SCHEDULE,BLOCKS-964_MULTIFAMILY_10_EAST PERIMETER,190.92,5.4,0.000,0.000,0.000,0.000,0.370,0.180,0.450,1.000,General,0.000,0.000
 Lights Internal Gains Nominal, BLOCKS-964_MULTIFAMILY_10_NORTH PERIMETER PNNL_ASSET_RATING_APARTMENT_LIGHTS,PNNL_ASSET_RATING_APARTMENT_LIGHTING_SCHEDULE,BLOCKS-964_MULTIFAMILY_10_NORTH PERIMETER,56.44,1.6,0.000,0.000,0.000,0.000,0.370,0.180,0.450,1.000,General,0.000,0.000
 Lights Internal Gains Nominal, BLOCKS-964_MULTIFAMILY_10_SOUTH PERIMETER PNNL_ASSET_RATING_APARTMENT_LIGHTS,PNNL_ASSET_RATING_APARTMENT_LIGHTING_SCHEDULE,BLOCKS-964_MULTIFAMILY_10_SOUTH PERIMETER,56.44,1.6,0.000,0.000,0.000,0.000,0.370,0.180,0.450,1.000,General,0.000,0.000
 Lights Internal Gains Nominal, BLOCKS-964_MULTIFAMILY_10_WEST PERIMETER PNNL_ASSET_RATING_APARTMENT_LIGHTS,PNNL_ASSET_RATING_APARTMENT_LIGHTING_SCHEDULE,BLOCKS-964_MULTIFAMILY_10_WEST PERIMETER,190.92,5.4,0.000,0.000,0.000,0.000,0.370,0.180,0.450,1.000,General,0.000,0.000
 Lights Internal Gains Nominal, BLOCKS-964_MULTIFAMILY_1_CORE PNNL_ASSET_RATING_APARTMENT_LIGHTS,PNNL_ASSET_RATING_APARTMENT_LIGHTING_SCHEDULE,BLOCKS-964_MULTIFAMILY_1_CORE,289.02,8.2,0.000,0.000,0.000,0.000,0.370,0.180,0.450,1.000,General,0.000,0.000
 Lights Internal Gains Nominal, BLOCKS-964_MULTIFAMILY_1_EAST PERIMETER PNNL_ASSET_RATING_APARTMENT_LIGHTS,PNNL_ASSET_RATING_APARTMENT_LIGHTING_SCHEDULE,BLOCKS-964_MULTIFAMILY_1_EAST PERIMETER,190.92,5.4,0.000,0.000,0.000,0.000,0.370,0.180,0.450,1.000,General,0.000,0.000
 Lights Internal Gains Nominal, BLOCKS-964_MULTIFAMILY_1_NORTH PERIMETER PNNL_ASSET_RATING_APARTMENT_LIGHTS,PNNL_ASSET_RATING_APARTMENT_LIGHTING_SCHEDULE,BLOCKS-964_MULTIFAMILY_1_NORTH PERIMETER,56.44,1.6,0.000,0.000,0.000,0.000,0.370,0.180,0.450,1.000,General,0.000,0.000
 Lights Internal Gains Nominal, BLOCKS-964_MULTIFAMILY_1_SOUTH PERIMETER PNNL_ASSET_RATING_APARTMENT_LIGHTS,PNNL_ASSET_RATING_APARTMENT_LIGHTING_SCHEDULE,BLOCKS-964_MULTIFAMILY_1_SOUTH PERIMETER,56.44,1.6,0.000,0.000,0.000,0.000,0.370,0.180,0.450,1.000,General,0.000,0.000
 Lights Internal Gains Nominal, BLOCKS-964_MULTIFAMILY_1_WEST PERIMETER PNNL_ASSET_RATING_APARTMENT_LIGHTS,PNNL_ASSET_RATING_APARTMENT_LIGHTING_SCHEDULE,BLOCKS-964_MULTIFAMILY_1_WEST PERIMETER,190.92,5.4,0.000,0.000,0.000,0.000,0.370,0.180,0.450,1.000,General,0.000,0.000
 Lights Internal Gains Nominal, BLOCKS-964_MULTIFAMILY_2_CORE PNNL_ASSET_RATING_APARTMENT_LIGHTS,PNNL_ASSET_RATING_APARTMENT_LIGHTING_SCHEDULE,BLOCKS-964_MULTIFAMILY_2_CORE,289.02,8.2,0.000,0.000,0.000,0.000,0.370,0.180,0.450,1.000,General,0.000,0.000
 Lights Internal Gains Nominal, BLOCKS-964_MULTIFAMILY_2_EAST PERIMETER PNNL_ASSET_RATING_APARTMENT_LIGHTS,PNNL_ASSET_RATING_APARTMENT_LIGHTING_SCHEDULE,BLOCKS-964_MULTIFAMILY_2_EAST PERIMETER,190.92,5.4,0.000,0.000,0.000,0.000,0.370,0.180,0.450,1.000,General,0.000,0.000
 Lights Internal Gains Nominal, BLOCKS-964_MULTIFAMILY_2_NORTH PERIMETER PNNL_ASSET_RATING_APARTMENT_LIGHTS,PNNL_ASSET_RATING_APARTMENT_LIGHTING_SCHEDULE,BLOCKS-964_MULTIFAMILY_2_NORTH PERIMETER,56.44,1.6,0.000,0.000,0.000,0.000,0.370,0.180,0.450,1.000,General,0.000,0.000
 Lights Internal Gains Nominal, BLOCKS-964_MULTIFAMILY_2_SOUTH PERIMETER PNNL_ASSET_RATING_APARTMENT_LIGHTS,PNNL_ASSET_RATING_APARTMENT_LIGHTING_SCHEDULE,BLOCKS-964_MULTIFAMILY_2_SOUTH PERIMETER,56.44,1.6,0.000,0.000,0.000,0.000,0.370,0.180,0.450,1.000,General,0.000,0.000
 Lights Internal Gains Nominal, BLOCKS-964_MULTIFAMILY_2_WEST PERIMETER PNNL_ASSET_RATING_APARTMENT_LIGHTS,PNNL_ASSET_RATING_APARTMENT_LIGHTING_SCHEDULE,BLOCKS-964_MULTIFAMILY_2_WEST PERIMETER,190.92,5.4,0.000,0.000,0.000,0.000,0.370,0.180,0.450,1.000,General,0.000,0.000
 Lights Internal Gains Nominal, BLOCKS-964_MULTIFAMILY_3_CORE PNNL_ASSET_RATING_APARTMENT_LIGHTS,PNNL_ASSET_RATING_APARTMENT_LIGHTING_SCHEDULE,BLOCKS-964_MULTIFAMILY_3_CORE,289.02,8.2,0.000,0.000,0.000,0.000,0.370,0.180,0.450,1.000,General,0.000,0.000
 Lights Internal Gains Nominal, BLOCKS-964_MULTIFAMILY_3_EAST PERIMETER PNNL_ASSET_RATING_APARTMENT_LIGHTS,PNNL_ASSET_RATING_APARTMENT_LIGHTING_SCHEDULE,BLOCKS-964_MULTIFAMILY_3_EAST PERIMETER,190.92,5.4,0.000,0.000,0.000,0.000,0.370,0.180,0.450,1.000,General,0.000,0.000
 Lights Internal Gains Nominal, BLOCKS-964_MULTIFAMILY_3_NORTH PERIMETER PNNL_ASSET_RATING_APARTMENT_LIGHTS,PNNL_ASSET_RATING_APARTMENT_LIGHTING_SCHEDULE,BLOCKS-964_MULTIFAMILY_3_NORTH PERIMETER,56.44,1.6,0.000,0.000,0.000,0.000,0.370,0.180,0.450,1.000,General,0.000,0.000
 Lights Internal Gains Nominal, BLOCKS-964_MULTIFAMILY_3_SOUTH PERIMETER PNNL_ASSET_RATING_APARTMENT_LIGHTS,PNNL_ASSET_RATING_APARTMENT_LIGHTING_SCHEDULE,BLOCKS-964_MULTIFAMILY_3_SOUTH PERIMETER,56.44,1.6,0.000,0.000,0.000,0.000,0.370,0.180,0.450,1.000,General,0.000,0.000
 Lights Internal Gains Nominal, BLOCKS-964_MULTIFAMILY_3_WEST PERIMETER PNNL_ASSET_RATING_APARTMENT_LIGHTS,PNNL_ASSET_RATING_APARTMENT_LIGHTING_SCHEDULE,BLOCKS-964_MULTIFAMILY_3_WEST PERIMETER,190.92,5.4,0.000,0.000,0.000,0.000,0.370,0.180,0.450,1.000,General,0.000,0.000
 Lights Internal Gains Nominal, BLOCKS-964_MULTIFAMILY_4_CORE PNNL_ASSET_RATING_APARTMENT_LIGHTS,PNNL_ASSET_RATING_APARTMENT_LIGHTING_SCHEDULE,BLOCKS-964_MULTIFAMILY_4_CORE,289.02,8.2,0.000,0.000,0.000,0.000,0.370,0.180,0.450,1.000,General,0.000,0.000
 Lights Internal Gains Nominal, BLOCKS-964_MULTIFAMILY_4_EAST PERIMETER PNNL_ASSET_RATING_APARTMENT_LIGHTS,PNNL_ASSET_RATING_APARTMENT_LIGHTING_SCHEDULE,BLOCKS-964_MULTIFAMILY_4_EAST PERIMETER,190.92,5.4,0.000,0.000,0.000,0.000,0.370,0.180,0.450,1.000,General,0.000,0.000
 Lights Internal Gains Nominal, BLOCKS-964_MULTIFAMILY_4_NORTH PERIMETER PNNL_ASSET_RATING_APARTMENT_LIGHTS,PNNL_ASSET_RATING_APARTMENT_LIGHTING_SCHEDULE,BLOCKS-964_MULTIFAMILY_4_NORTH PERIMETER,56.44,1.6,0.000,0.000,0.000,0.000,0.370,0.180,0.450,1.000,General,0.000,0.000
 Lights Internal Gains Nominal, BLOCKS-964_MULTIFAMILY_4_SOUTH PERIMETER PNNL_ASSET_RATING_APARTMENT_LIGHTS,PNNL_ASSET_RATING_APARTMENT_LIGHTING_SCHEDULE,BLOCKS-964_MULTIFAMILY_4_SOUTH PERIMETER,56.44,1.6,0.000,0.000,0.000,0.000,0.370,0.180,0.450,1.000,General,0.000,0.000
 Lights Internal Gains Nominal, BLOCKS-964_MULTIFAMILY_4_WEST PERIMETER PNNL_ASSET_RATING_APARTMENT_LIGHTS,PNNL_ASSET_RATING_APARTMENT_LIGHTING_SCHEDULE,BLOCKS-964_MULTIFAMILY_4_WEST PERIMETER,190.92,5.4,0.000,0.000,0.000,0.000,0.370,0.180,0.450,1.000,General,0.000,0.000
 Lights Internal Gains Nominal, BLOCKS-964_MULTIFAMILY_5_CORE PNNL_ASSET_RATING_APARTMENT_LIGHTS,PNNL_ASSET_RATING_APARTMENT_LIGHTING_SCHEDULE,BLOCKS-964_MULTIFAMILY_5_CORE,289.02,8.2,0.000,0.000,0.000,0.000,0.370,0.180,0.450,1.000,General,0.000,0.000
 Lights Internal Gains Nominal, BLOCKS-964_MULTIFAMILY_5_EAST PERIMETER PNNL_ASSET_RATING_APARTMENT_LIGHTS,PNNL_ASSET_RATING_APARTMENT_LIGHTING_SCHEDULE,BLOCKS-964_MULTIFAMILY_5_EAST PERIMETER,190.92,5.4,0.000,0.000,0.000,0.000,0.370,0.180,0.450,1.000,General,0.000,0.000
 Lights Internal Gains Nominal, BLOCKS-964_MULTIFAMILY_5_NORTH PERIMETER PNNL_ASSET_RATING_APARTMENT_LIGHTS,PNNL_ASSET_RATING_APARTMENT_LIGHTING_SCHEDULE,BLOCKS-964_MULTIFAMILY_5_NORTH PERIMETER,56.44,1.6,0.000,0.000,0.000,0.000,0.370,0.180,0.450,1.000,General,0.000,0.000
 Lights Internal Gains Nominal, BLOCKS-964_MULTIFAMILY_5_SOUTH PERIMETER PNNL_ASSET_RATING_APARTMENT_LIGHTS,PNNL_ASSET_RATING_APARTMENT_LIGHTING_SCHEDULE,BLOCKS-964_MULTIFAMILY_5_SOUTH PERIMETER,56.44,1.6,0.000,0.000,0.000,0.000,0.370,0.180,0.450,1.000,General,0.000,0.000
 Lights Internal Gains Nominal, BLOCKS-964_MULTIFAMILY_5_WEST PERIMETER PNNL_ASSET_RATING_APARTMENT_LIGHTS,PNNL_ASSET_RATING_APARTMENT_LIGHTING_SCHEDULE,BLOCKS-964_MULTIFAMILY_5_WEST PERIMETER,190.92,5.4,0.000,0.000,0.000,0.000,0.370,0.180,0.450,1.000,General,0.000,0.000
 Lights Internal Gains Nominal, BLOCKS-964_MULTIFAMILY_6_CORE PNNL_ASSET_RATING_APARTMENT_LIGHTS,PNNL_ASSET_RATING_APARTMENT_LIGHTING_SCHEDULE,BLOCKS-964_MULTIFAMILY_6_CORE,289.02,8.2,0.000,0.000,0.000,0.000,0.370,0.180,0.450,1.000,General,0.000,0.000
 Lights Internal Gains Nominal, BLOCKS-964_MULTIFAMILY_6_EAST PERIMETER PNNL_ASSET_RATING_APARTMENT_LIGHTS,PNNL_ASSET_RATING_APARTMENT_LIGHTING_SCHEDULE,BLOCKS-964_MULTIFAMILY_6_EAST PERIMETER,190.92,5.4,0.000,0.000,0.000,0.000,0.370,0.180,0.450,1.000,General,0.000,0.000
 Lights Internal Gains Nominal, BLOCKS-964_MULTIFAMILY_6_NORTH PERIMETER PNNL_ASSET_RATING_APARTMENT_LIGHTS,PNNL_ASSET_RATING_APARTMENT_LIGHTING_SCHEDULE,BLOCKS-964_MULTIFAMILY_6_NORTH PERIMETER,56.44,1.6,0.000,0.000,0.000,0.000,0.370,0.180,0.450,1.000,General,0.000,0.000
 Lights Internal Gains Nominal, BLOCKS-964_MULTIFAMILY_6_SOUTH PERIMETER PNNL_ASSET_RATING_APARTMENT_LIGHTS,PNNL_ASSET_RATING_APARTMENT_LIGHTING_SCHEDULE,BLOCKS-964_MULTIFAMILY_6_SOUTH PERIMETER,56.44,1.6,0.000,0.000,0.000,0.000,0.370,0.180,0.450,1.000,General,0.000,0.000
 Lights Internal Gains Nominal, BLOCKS-964_MULTIFAMILY_6_WEST PERIMETER PNNL_ASSET_RATING_APARTMENT_LIGHTS,PNNL_ASSET_RATING_APARTMENT_LIGHTING_SCHEDULE,BLOCKS-964_MULTIFAMILY_6_WEST PERIMETER,190.92,5.4,0.000,0.000,0.000,0.000,0.370,0.180,0.450,1.000,General,0.000,0.000
 Lights Internal Gains Nominal, BLOCKS-964_MULTIFAMILY_7_CORE PNNL_ASSET_RATING_APARTMENT_LIGHTS,PNNL_ASSET_RATING_APARTMENT_LIGHTING_SCHEDULE,BLOCKS-964_MULTIFAMILY_7_CORE,289.02,8.2,0.000,0.000,0.000,0.000,0.370,0.180,0.450,1.000,General,0.000,0.000
 Lights Internal Gains Nominal, BLOCKS-964_MULTIFAMILY_7_EAST PERIMETER PNNL_ASSET_RATING_APARTMENT_LIGHTS,PNNL_ASSET_RATING_APARTMENT_LIGHTING_SCHEDULE,BLOCKS-964_MULTIFAMILY_7_EAST PERIMETER,190.92,5.4,0.000,0.000,0.000,0.000,0.370,0.180,0.450,1.000,General,0.000,0.000
 Lights Internal Gains Nominal, BLOCKS-964_MULTIFAMILY_7_NORTH PERIMETER PNNL_ASSET_RATING_APARTMENT_LIGHTS,PNNL_ASSET_RATING_APARTMENT_LIGHTING_SCHEDULE,BLOCKS-964_MULTIFAMILY_7_NORTH PERIMETER,56.44,1.6,0.000,0.000,0.000,0.000,0.370,0.180,0.450,1.000,General,0.000,0.000
 Lights Internal Gains Nominal, BLOCKS-964_MULTIFAMILY_7_SOUTH PERIMETER PNNL_ASSET_RATING_APARTMENT_LIGHTS,PNNL_ASSET_RATING_APARTMENT_LIGHTING_SCHEDULE,BLOCKS-964_MULTIFAMILY_7_SOUTH PERIMETER,56.44,1.6,0.000,0.000,0.000,0.000,0.370,0.180,0.450,1.000,General,0.000,0.000
 Lights Internal Gains Nominal, BLOCKS-964_MULTIFAMILY_7_WEST PERIMETER PNNL_ASSET_RATING_APARTMENT_LIGHTS,PNNL_ASSET_RATING_APARTMENT_LIGHTING_SCHEDULE,BLOCKS-964_MULTIFAMILY_7_WEST PERIMETER,190.92,5.4,0.000,0.000,0.000,0.000,0.370,0.180,0.450,1.000,General,0.000,0.000
 Lights Internal Gains Nominal, BLOCKS-964_MULTIFAMILY_8_CORE PNNL_ASSET_RATING_APARTMENT_LIGHTS,PNNL_ASSET_RATING_APARTMENT_LIGHTING_SCHEDULE,BLOCKS-964_MULTIFAMILY_8_CORE,289.02,8.2,0.000,0.000,0.000,0.000,0.370,0.180,0.450,1.000,General,0.000,0.000
 Lights Internal Gains Nominal, BLOCKS-964_MULTIFAMILY_8_EAST PERIMETER PNNL_ASSET_RATING_APARTMENT_LIGHTS,PNNL_ASSET_RATING_APARTMENT_LIGHTING_SCHEDULE,BLOCKS-964_MULTIFAMILY_8_EAST PERIMETER,190.92,5.4,0.000,0.000,0.000,0.000,0.370,0.180,0.450,1.000,General,0.000,0.000
 Lights Internal Gains Nominal, BLOCKS-964_MULTIFAMILY_8_NORTH PERIMETER PNNL_ASSET_RATING_APARTMENT_LIGHTS,PNNL_ASSET_RATING_APARTMENT_LIGHTING_SCHEDULE,BLOCKS-964_MULTIFAMILY_8_NORTH PERIMETER,56.44,1.6,0.000,0.000,0.000,0.000,0.370,0.180,0.450,1.000,General,0.000,0.000
 Lights Internal Gains Nominal, BLOCKS-964_MULTIFAMILY_8_SOUTH PERIMETER PNNL_ASSET_RATING_APARTMENT_LIGHTS,PNNL_ASSET_RATING_APARTMENT_LIGHTING_SCHEDULE,BLOCKS-964_MULTIFAMILY_8_SOUTH PERIMETER,56.44,1.6,0.000,0.000,0.000,0.000,0.370,0.180,0.450,1.000,General,0.000,0.000
 Lights Internal Gains Nominal, BLOCKS-964_MULTIFAMILY_8_WEST PERIMETER PNNL_ASSET_RATING_APARTMENT_LIGHTS,PNNL_ASSET_RATING_APARTMENT_LIGHTING_SCHEDULE,BLOCKS-964_MULTIFAMILY_8_WEST PERIMETER,190.92,5.4,0.000,0.000,0.000,0.000,0.370,0.180,0.450,1.000,General,0.000,0.000
 Lights Internal Gains Nominal, BLOCKS-964_MULTIFAMILY_9_CORE PNNL_ASSET_RATING_APARTMENT_LIGHTS,PNNL_ASSET_RATING_APARTMENT_LIGHTING_SCHEDULE,BLOCKS-964_MULTIFAMILY_9_CORE,289.02,8.2,0.000,0.000,0.000,0.000,0.370,0.180,0.450,1.000,General,0.000,0.000
 Lights Internal Gains Nominal, BLOCKS-964_MULTIFAMILY_9_EAST PERIMETER PNNL_ASSET_RATING_APARTMENT_LIGHTS,PNNL_ASSET_RATING_APARTMENT_LIGHTING_SCHEDULE,BLOCKS-964_MULTIFAMILY_9_EAST PERIMETER,190.92,5.4,0.000,0.000,0.000,0.000,0.370,0.180,0.450,1.000,General,0.000,0.000
 Lights Internal Gains Nominal, BLOCKS-964_MULTIFAMILY_9_NORTH PERIMETER PNNL_ASSET_RATING_APARTMENT_LIGHTS,PNNL_ASSET_RATING_APARTMENT_LIGHTING_SCHEDULE,BLOCKS-964_MULTIFAMILY_9_NORTH PERIMETER,56.44,1.6,0.000,0.000,0.000,0.000,0.370,0.180,0.450,1.000,General,0.000,0.000
 Lights Internal Gains Nominal, BLOCKS-964_MULTIFAMILY_9_SOUTH PERIMETER PNNL_ASSET_RATING_APARTMENT_LIGHTS,PNNL_ASSET_RATING_APARTMENT_LIGHTING_SCHEDULE,BLOCKS-964_MULTIFAMILY_9_SOUTH PERIMETER,56.44,1.6,0.000,0.000,0.000,0.000,0.370,0.180,0.450,1.000,General,0.000,0.000
 Lights Internal Gains Nominal, BLOCKS-964_MULTIFAMILY_9_WEST PERIMETER PNNL_ASSET_RATING_APARTMENT_LIGHTS,PNNL_ASSET_RATING_APARTMENT_LIGHTING_SCHEDULE,BLOCKS-964_MULTIFAMILY_9_WEST PERIMETER,190.92,5.4,0.000,0.000,0.000,0.000,0.370,0.180,0.450,1.000,General,0.000,0.000
! <ElectricEquipment Internal Gains Nominal>,Name,Schedule Name,Zone Name,Zone Floor Area {m2},# Zone Occupants,Equipment Level {W},Equipment/Floor Area {W/m2},Equipment per person {W/person},Fraction Latent,Fraction Radiant,Fraction Lost,Fraction Convected,End-Use SubCategory,Nominal Minimum Equipment Level {W},Nominal Maximum Equipment Level {W}
 ElectricEquipment Internal Gains Nominal, BLOCKS-964_MULTIFAMILY_10_CORE PNNL_ASSET_RATING_APARTMENT_PLUG_LOADS,PNNL_ASSET_RATING_APARTMENT_PLUG_AND_PROCESS_SCHEDULE,BLOCKS-964_MULTIFAMILY_10_CORE,289.02,8.2,1928.820,6.674,235.600,0.000,0.300,0.000,0.700,General,733.662,1928.820
 ElectricEquipment Internal Gains Nominal, BLOCKS-964_MULTIFAMILY_10_EAST PERIMETER PNNL_ASSET_RATING_APARTMENT_PLUG_LOADS,PNNL_ASSET_RATING_APARTMENT_PLUG_AND_PROCESS_SCHEDULE,BLOCKS-964_MULTIFAMILY_10_EAST PERIMETER,190.92,5.4,1274.100,6.674,235.600,0.000,0.300,0.000,0.700,General,484.627,1274.100
 ElectricEquipment Internal Gains Nominal, BLOCKS-964_MULTIFAMILY_10_NORTH PERIMETER PNNL_ASSET_RATING_APARTMENT_PLUG_LOADS,PNNL_ASSET_RATING_APARTMENT_PLUG_AND_PROCESS_SCHEDULE,BLOCKS-964_MULTIFAMILY_10_NORTH PERIMETER,56.44,1.6,376.650,6.674,235.600,0.000,0.300,0.000,0.700,General,143.266,376.650
 ElectricEquipment Internal Gains Nominal, BLOCKS-964_MULTIFAMILY_10_SOUTH PERIMETER PNNL_ASSET_RATING_APARTMENT_PLUG_LOADS,PNNL_ASSET_RATING_APARTMENT_PLUG_AND_PROCESS_SCHEDULE,BLOCKS-964_MULTIFAMILY_10_SOUTH PERIMETER,56.44,1.6,376.650,6.674,235.600,0.000,0.300,0.000,0.700,General,143.266,376.650
 ElectricEquipment Internal Gains Nominal, BLOCKS-964_MULTIFAMILY_10_WEST PERIMETER PNNL_ASSET_RATING_APARTMENT_PLUG_LOADS,PNNL_ASSET_RATING_APARTMENT_PLUG_AND_PROCESS_SCHEDULE,BLOCKS-964_MULTIFAMILY_10_WEST PERIMETER,190.92,5.4,1274.100,6.674,235.600,0.000,0.300,0.000,0.700,General,484.627,1274.100
 ElectricEquipment Internal Gains Nominal, BLOCKS-964_MULTIFAMILY_1_CORE PNNL_ASSET_RATING_APARTMENT_PLUG_LOADS,PNNL_ASSET_RATING_APARTMENT_PLUG_AND_PROCESS_SCHEDULE,BLOCKS-964_MULTIFAMILY_1_CORE,289.02,8.2,1928.820,6.674,235.600,0.000,0.300,0.000,0.700,General,733.662,1928.820
 ElectricEquipment Internal Gains Nominal, BLOCKS-964_MULTIFAMILY_1_EAST PERIMETER PNNL_ASSET_RATING_APARTMENT_PLUG_LOADS,PNNL_ASSET_RATING_APARTMENT_PLUG_AND_PROCESS_SCHEDULE,BLOCKS-964_MULTIFAMILY_1_EAST PERIMETER,190.92,5.4,1274.100,6.674,235.600,0.000,0.300,0.000,0.700,General,484.627,1274.100
 ElectricEquipment Internal Gains Nominal, BLOCKS-964_MULTIFAMILY_1_NORTH PERIMETER PNNL_ASSET_RATING_APARTMENT_PLUG_LOADS,PNNL_ASSET_RATING_APARTMENT_PLUG_AND_PROCESS_SCHEDULE,BLOCKS-964_MULTIFAMILY_1_NORTH PERIMETER,56.44,1.6,376.650,6.674,235.600,0.000,0.300,0.000,0.700,General,143.266,376.650
 ElectricEquipment Internal Gains Nominal, BLOCKS-964_MULTIFAMILY_1_SOUTH PERIMETER PNNL_ASSET_RATING_APARTMENT_PLUG_LOADS,PNNL_ASSET_RATING_APARTMENT_PLUG_AND_PROCESS_SCHEDULE,BLOCKS-964_MULTIFAMILY_1_SOUTH PERIMETER,56.44,1.6,376.650,6.674,235.600,0.000,0.300,0.000,0.700,General,143.266,376.650
 ElectricEquipment Internal Gains Nominal, BLOCKS-964_MULTIFAMILY_1_WEST PERIMETER PNNL_ASSET_RATING_APARTMENT_PLUG_LOADS,PNNL_ASSET_RATING_APARTMENT_PLUG_AND_PROCESS_SCHEDULE,BLOCKS-964_MULTIFAMILY_1_WEST PERIMETER,190.92,5.4,1274.100,6.674,235.600,0.000,0.300,0.000,0.700,General,484.627,1274.100
 ElectricEquipment Internal Gains Nominal, BLOCKS-964_MULTIFAMILY_2_CORE PNNL_ASSET_RATING_APARTMENT_PLUG_LOADS,PNNL_ASSET_RATING_APARTMENT_PLUG_AND_PROCESS_SCHEDULE,BLOCKS-964_MULTIFAMILY_2_CORE,289.02,8.2,1928.820,6.674,235.600,0.000,0.300,0.000,0.700,General,733.662,1928.820
 ElectricEquipment Internal Gains Nominal, BLOCKS-964_MULTIFAMILY_2_EAST PERIMETER PNNL_ASSET_RATING_APARTMENT_PLUG_LOADS,PNNL_ASSET_RATING_APARTMENT_PLUG_AND_PROCESS_SCHEDULE,BLOCKS-964_MULTIFAMILY_2_EAST PERIMETER,190.92,5.4,1274.100,6.674,235.600,0.000,0.300,0.000,0.700,General,484.627,1274.100
 ElectricEquipment Internal Gains Nominal, BLOCKS-964_MULTIFAMILY_2_NORTH PERIMETER PNNL_ASSET_RATING_APARTMENT_PLUG_LOADS,PNNL_ASSET_RATING_APARTMENT_PLUG_AND_PROCESS_SCHEDULE,BLOCKS-964_MULTIFAMILY_2_NORTH PERIMETER,56.44,1.6,376.650,6.674,235.600,0.000,0.300,0.000,0.700,General,143.266,376.650
 ElectricEquipment Internal Gains Nominal, BLOCKS-964_MULTIFAMILY_2_SOUTH PERIMETER PNNL_ASSET_RATING_APARTMENT_PLUG_LOADS,PNNL_ASSET_RATING_APARTMENT_PLUG_AND_PROCESS_SCHEDULE,BLOCKS-964_MULTIFAMILY_2_SOUTH PERIMETER,56.44,1.6,376.650,6.674,235.600,0.000,0.300,0.000,0.700,General,143.266,376.650
 ElectricEquipment Internal Gains Nominal, BLOCKS-964_MULTIFAMILY_2_WEST PERIMETER PNNL_ASSET_RATING_APARTMENT_PLUG_LOADS,PNNL_ASSET_RATING_APARTMENT_PLUG_AND_PROCESS_SCHEDULE,BLOCKS-964_MULTIFAMILY_2_WEST PERIMETER,190.92,5.4,1274.100,6.674,235.600,0.000,0.300,0.000,0.700,General,484.627,1274.100
 ElectricEquipment Internal Gains Nominal, BLOCKS-964_MULTIFAMILY_3_CORE PNNL_ASSET_RATING_APARTMENT_PLUG_LOADS,PNNL_ASSET_RATING_APARTMENT_PLUG_AND_PROCESS_SCHEDULE,BLOCKS-964_MULTIFAMILY_3_CORE,289.02,8.2,1928.820,6.674,235.600,0.000,0.300,0.000,0.700,General,733.662,1928.820
 ElectricEquipment Internal Gains Nominal, BLOCKS-964_MULTIFAMILY_3_EAST PERIMETER PNNL_ASSET_RATING_APARTMENT_PLUG_LOADS,PNNL_ASSET_RATING_APARTMENT_PLUG_AND_PROCESS_SCHEDULE,BLOCKS-964_MULTIFAMILY_3_EAST PERIMETER,190.92,5.4,1274.100,6.674,235.600,0.000,0.300,0.000,0.700,General,484.627,1274.100
 ElectricEquipment Internal Gains Nominal, BLOCKS-964_MULTIFAMILY_3_NORTH PERIMETER PNNL_ASSET_RATING_APARTMENT_PLUG_LOADS,PNNL_ASSET_RATING_APARTMENT_PLUG_AND_PROCESS_SCHEDULE,BLOCKS-964_MULTIFAMILY_3_NORTH PERIMETER,56.44,1.6,376.650,6.674,235.600,0.000,0.300,0.000,0.700,General,143.266,376.650
 ElectricEquipment Internal Gains Nominal, BLOCKS-964_MULTIFAMILY_3_SOUTH PERIMETER PNNL_ASSET_RATING_APARTMENT_PLUG_LOADS,PNNL_ASSET_RATING_APARTMENT_PLUG_AND_PROCESS_SCHEDULE,BLOCKS-964_MULTIFAMILY_3_SOUTH PERIMETER,56.44,1.6,376.650,6.674,235.600,0.000,0.300,0.000,0.700,General,143.266,376.650
 ElectricEquipment Internal Gains Nominal, BLOCKS-964_MULTIFAMILY_3_WEST PERIMETER PNNL_ASSET_RATING_APARTMENT_PLUG_LOADS,PNNL_ASSET_RATING_APARTMENT_PLUG_AND_PROCESS_SCHEDULE,BLOCKS-964_MULTIFAMILY_3_WEST PERIMETER,190.92,5.4,1274.100,6.674,235.600,0.000,0.300,0.000,0.700,General,484.627,1274.100
 ElectricEquipment Internal Gains Nominal, BLOCKS-964_MULTIFAMILY_4_CORE PNNL_ASSET_RATING_APARTMENT_PLUG_LOADS,PNNL_ASSET_RATING_APARTMENT_PLUG_AND_PROCESS_SCHEDULE,BLOCKS-964_MULTIFAMILY_4_CORE,289.02,8.2,1928.820,6.674,235.600,0.000,0.300,0.000,0.700,General,733.662,1928.820
 ElectricEquipment Internal Gains Nominal, BLOCKS-964_MULTIFAMILY_4_EAST PERIMETER PNNL_ASSET_RATING_APARTMENT_PLUG_LOADS,PNNL_ASSET_RATING_APARTMENT_PLUG_AND_PROCESS_SCHEDULE,BLOCKS-964_MULTIFAMILY_4_EAST PERIMETER,190.92,5.4,1274.100,6.674,235.600,0.000,0.300,0.000,0.700,General,484.627,1274.100
 ElectricEquipment Internal Gains Nominal, BLOCKS-964_MULTIFAMILY_4_NORTH PERIMETER PNNL_ASSET_RATING_APARTMENT_PLUG_LOADS,PNNL_ASSET_RATING_APARTMENT_PLUG_AND_PROCESS_SCHEDULE,BLOCKS-964_MULTIFAMILY_4_NORTH PERIMETER,56.44,1.6,376.650,6.674,235.600,0.000,0.300,0.000,0.700,General,143.266,376.650
 ElectricEquipment Internal Gains Nominal, BLOCKS-964_MULTIFAMILY_4_SOUTH PERIMETER PNNL_ASSET_RATING_APARTMENT_PLUG_LOADS,PNNL_ASSET_RATING_APARTMENT_PLUG_AND_PROCESS_SCHEDULE,BLOCKS-964_MULTIFAMILY_4_SOUTH PERIMETER,56.44,1.6,376.650,6.674,235.600,0.000,0.300,0.000,0.700,General,143.266,376.650
 ElectricEquipment Internal Gains Nominal, BLOCKS-964_MULTIFAMILY_4_WEST PERIMETER PNNL_ASSET_RATING_APARTMENT_PLUG_LOADS,PNNL_ASSET_RATING_APARTMENT_PLUG_AND_PROCESS_SCHEDULE,BLOCKS-964_MULTIFAMILY_4_WEST PERIMETER,190.92,5.4,1274.100,6.674,235.600,0.000,0.300,0.000,0.700,General,484.627,1274.100
 ElectricEquipment Internal Gains Nominal, BLOCKS-964_MULTIFAMILY_5_CORE PNNL_ASSET_RATING_APARTMENT_PLUG_LOADS,PNNL_ASSET_RATING_APARTMENT_PLUG_AND_PROCESS_SCHEDULE,BLOCKS-964_MULTIFAMILY_5_CORE,289.02,8.2,1928.820,6.674,235.600,0.000,0.300,0.000,0.700,General,733.662,1928.820
 ElectricEquipment Internal Gains Nominal, BLOCKS-964_MULTIFAMILY_5_EAST PERIMETER PNNL_ASSET_RATING_APARTMENT_PLUG_LOADS,PNNL_ASSET_RATING_APARTMENT_PLUG_AND_PROCESS_SCHEDULE,BLOCKS-964_MULTIFAMILY_5_EAST PERIMETER,190.92,5.4,1274.100,6.674,235.600,0.000,0.300,0.000,0.700,General,484.627,1274.100
 ElectricEquipment Internal Gains Nominal, BLOCKS-964_MULTIFAMILY_5_NORTH PERIMETER PNNL_ASSET_RATING_APARTMENT_PLUG_LOADS,PNNL_ASSET_RATING_APARTMENT_PLUG_AND_PROCESS_SCHEDULE,BLOCKS-964_MULTIFAMILY_5_NORTH PERIMETER,56.44,1.6,376.650,6.674,235.600,0.000,0.300,0.000,0.700,General,143.266,376.650
 ElectricEquipment Internal Gains Nominal, BLOCKS-964_MULTIFAMILY_5_SOUTH PERIMETER PNNL_ASSET_RATING_APARTMENT_PLUG_LOADS,PNNL_ASSET_RATING_APARTMENT_PLUG_AND_PROCESS_SCHEDULE,BLOCKS-964_MULTIFAMILY_5_SOUTH PERIMETER,56.44,1.6,376.650,6.674,235.600,0.000,0.300,0.000,0.700,General,143.266,376.650
 ElectricEquipment Internal Gains Nominal, BLOCKS-964_MULTIFAMILY_5_WEST PERIMETER PNNL_ASSET_RATING_APARTMENT_PLUG_LOADS,PNNL_ASSET_RATING_APARTMENT_PLUG_AND_PROCESS_SCHEDULE,BLOCKS-964_MULTIFAMILY_5_WEST PERIMETER,190.92,5.4,1274.100,6.674,235.600,0.000,0.300,0.000,0.700,General,484.627,1274.100
 ElectricEquipment Internal Gains Nominal, BLOCKS-964_MULTIFAMILY_6_CORE PNNL_ASSET_RATING_APARTMENT_PLUG_LOADS,PNNL_ASSET_RATING_APARTMENT_PLUG_AND_PROCESS_SCHEDULE,BLOCKS-964_MULTIFAMILY_6_CORE,289.02,8.2,1928.820,6.674,235.600,0.000,0.300,0.000,0.700,General,733.662,1928.820
 ElectricEquipment Internal Gains Nominal, BLOCKS-964_MULTIFAMILY_6_EAST PERIMETER PNNL_ASSET_RATING_APARTMENT_PLUG_LOADS,PNNL_ASSET_RATING_APARTMENT_PLUG_AND_PROCESS_SCHEDULE,BLOCKS-964_MULTIFAMILY_6_EAST PERIMETER,190.92,5.4,1274.100,6.674,235.600,0.000,0.300,0.000,0.700,General,484.627,1274.100
 ElectricEquipment Internal Gains Nominal, BLOCKS-964_MULTIFAMILY_6_NORTH PERIMETER PNNL_ASSET_RATING_APARTMENT_PLUG_LOADS,PNNL_ASSET_RATING_APARTMENT_PLUG_AND_PROCESS_SCHEDULE,BLOCKS-964_MULTIFAMILY_6_NORTH PERIMETER,56.44,1.6,376.650,6.674,235.600,0.000,0.300,0.000,0.700,General,143.266,376.650
 ElectricEquipment Internal Gains Nominal, BLOCKS-964_MULTIFAMILY_6_SOUTH PERIMETER PNNL_ASSET_RATING_APARTMENT_PLUG_LOADS,PNNL_ASSET_RATING_APARTMENT_PLUG_AND_PROCESS_SCHEDULE,BLOCKS-964_MULTIFAMILY_6_SOUTH PERIMETER,56.44,1.6,376.650,6.674,235.600,0.000,0.300,0.000,0.700,General,143.266,376.650
 ElectricEquipment Internal Gains Nominal, BLOCKS-964_MULTIFAMILY_6_WEST PERIMETER PNNL_ASSET_RATING_APARTMENT_PLUG_LOADS,PNNL_ASSET_RATING_APARTMENT_PLUG_AND_PROCESS_SCHEDULE,BLOCKS-964_MULTIFAMILY_6_WEST PERIMETER,190.92,5.4,1274.100,6.674,235.600,0.000,0.300,0.000,0.700,General,484.627,1274.100
 ElectricEquipment Internal Gains Nominal, BLOCKS-964_MULTIFAMILY_7_CORE PNNL_ASSET_RATING_APARTMENT_PLUG_LOADS,PNNL_ASSET_RATING_APARTMENT_PLUG_AND_PROCESS_SCHEDULE,BLOCKS-964_MULTIFAMILY_7_CORE,289.02,8.2,1928.820,6.674,235.600,0.000,0.300,0.000,0.700,General,733.662,1928.820
 ElectricEquipment Internal Gains Nominal, BLOCKS-964_MULTIFAMILY_7_EAST PERIMETER PNNL_ASSET_RATING_APARTMENT_PLUG_LOADS,PNNL_ASSET_RATING_APARTMENT_PLUG_AND_PROCESS_SCHEDULE,BLOCKS-964_MULTIFAMILY_7_EAST PERIMETER,190.92,5.4,1274.100,6.674,235.600,0.000,0.300,0.000,0.700,General,484.627,1274.100
 ElectricEquipment Internal Gains Nominal, BLOCKS-964_MULTIFAMILY_7_NORTH PERIMETER PNNL_ASSET_RATING_APARTMENT_PLUG_LOADS,PNNL_ASSET_RATING_APARTMENT_PLUG_AND_PROCESS_SCHEDULE,BLOCKS-964_MULTIFAMILY_7_NORTH PERIMETER,56.44,1.6,376.650,6.674,235.600,0.000,0.300,0.000,0.700,General,143.266,376.650
 ElectricEquipment Internal Gains Nominal, BLOCKS-964_MULTIFAMILY_7_SOUTH PERIMETER PNNL_ASSET_RATING_APARTMENT_PLUG_LOADS,PNNL_ASSET_RATING_APARTMENT_PLUG_AND_PROCESS_SCHEDULE,BLOCKS-964_MULTIFAMILY_7_SOUTH PERIMETER,56.44,1.6,376.650,6.674,235.600,0.000,0.300,0.000,0.700,General,143.266,376.650
 ElectricEquipment Internal Gains Nominal, BLOCKS-964_MULTIFAMILY_7_WEST PERIMETER PNNL_ASSET_RATING_APARTMENT_PLUG_LOADS,PNNL_ASSET_RATING_APARTMENT_PLUG_AND_PROCESS_SCHEDULE,BLOCKS-964_MULTIFAMILY_7_WEST PERIMETER,190.92,5.4,1274.100,6.674,235.600,0.000,0.300,0.000,0.700,General,484.627,1274.100
 ElectricEquipment Internal Gains Nominal, BLOCKS-964_MULTIFAMILY_8_CORE PNNL_ASSET_RATING_APARTMENT_PLUG_LOADS,PNNL_ASSET_RATING_APARTMENT_PLUG_AND_PROCESS_SCHEDULE,BLOCKS-964_MULTIFAMILY_8_CORE,289.02,8.2,1928.820,6.674,235.600,0.000,0.300,0.000,0.700,General,733.662,1928.820
 ElectricEquipment Internal Gains Nominal, BLOCKS-964_MULTIFAMILY_8_EAST PERIMETER PNNL_ASSET_RATING_APARTMENT_PLUG_LOADS,PNNL_ASSET_RATING_APARTMENT_PLUG_AND_PROCESS_SCHEDULE,BLOCKS-964_MULTIFAMILY_8_EAST PERIMETER,190.92,5.4,1274.100,6.674,235.600,0.000,0.300,0.000,0.700,General,484.627,1274.100
 ElectricEquipment Internal Gains Nominal, BLOCKS-964_MULTIFAMILY_8_NORTH PERIMETER PNNL_ASSET_RATING_APARTMENT_PLUG_LOADS,PNNL_ASSET_RATING_APARTMENT_PLUG_AND_PROCESS_SCHEDULE,BLOCKS-964_MULTIFAMILY_8_NORTH PERIMETER,56.44,1.6,376.650,6.674,235.600,0.000,0.300,0.000,0.700,General,143.266,376.650
 ElectricEquipment Internal Gains Nominal, BLOCKS-964_MULTIFAMILY_8_SOUTH PERIMETER PNNL_ASSET_RATING_APARTMENT_PLUG_LOADS,PNNL_ASSET_RATING_APARTMENT_PLUG_AND_PROCESS_SCHEDULE,BLOCKS-964_MULTIFAMILY_8_SOUTH PERIMETER,56.44,1.6,376.650,6.674,235.600,0.000,0.300,0.000,0.700,General,143.266,376.650
 ElectricEquipment Internal Gains Nominal, BLOCKS-964_MULTIFAMILY_8_WEST PERIMETER PNNL_ASSET_RATING_APARTMENT_PLUG_LOADS,PNNL_ASSET_RATING_APARTMENT_PLUG_AND_PROCESS_SCHEDULE,BLOCKS-964_MULTIFAMILY_8_WEST PERIMETER,190.92,5.4,1274.100,6.674,235.600,0.000,0.300,0.000,0.700,General,484.627,1274.100
[...]
 Component Sizing Information, AirLoopHVAC:UnitaryHeatPump:AirToAir, AIR LOOP HVAC UNITARY HEAT PUMP AIR TO AIR 7, Supply Air Flow Rate During Cooling Operation [m3/s], 0.31131
 Component Sizing Information, AirLoopHVAC:UnitaryHeatPump:AirToAir, AIR LOOP HVAC UNITARY HEAT PUMP AIR TO AIR 7, Supply Air Flow Rate When No Cooling or Heating is Needed [m3/s], 0.31131
 Component Sizing Information, AirLoopHVAC:UnitaryHeatPump:AirToAir, AIR LOOP HVAC UNITARY HEAT PUMP AIR TO AIR 7, Nominal Heating Capacity [W], 5153.25585
 Component Sizing Information, AirLoopHVAC:UnitaryHeatPump:AirToAir, AIR LOOP HVAC UNITARY HEAT PUMP AIR TO AIR 7, Nominal Cooling Capacity [W], 5153.25585
 Component Sizing Information, AirLoopHVAC:UnitaryHeatPump:AirToAir, AIR LOOP HVAC UNITARY HEAT PUMP AIR TO AIR 7, Maximum Supply Air Temperature from Supplemental Heater [C], 40.00000
 Component Sizing Information, AirLoopHVAC:UnitaryHeatPump:AirToAir, AIR LOOP HVAC UNITARY HEAT PUMP AIR TO AIR 7, Supplemental Heating Coil Nominal Capacity [W], 929.53120
 Component Sizing Information, AirLoopHVAC:UnitaryHeatPump:AirToAir, AIR LOOP HVAC UNITARY HEAT PUMP AIR TO AIR 7, Fraction of Supply Air Flow That Goes Through the Controlling Zone, 1.00000
 Component Sizing Information, Fan:ConstantVolume, AIRLOOP AIR_HANDLERS-573_7_BLK_FAN_417.9703698435279CFM, Design Size Maximum Flow Rate [m3/s], 0.31131
 Component Sizing Information, Coil:Heating:DX:SingleSpeed, COIL HEATING DX SINGLE SPEED 7, Design Size Rated Air Flow Rate [m3/s], 0.31131
 Component Sizing Information, Coil:Heating:DX:SingleSpeed, COIL HEATING DX SINGLE SPEED 7, Design Size Gross Rated Heating Capacity [W], 5153.25585
 Component Sizing Information, Coil:Heating:DX:SingleSpeed, COIL HEATING DX SINGLE SPEED 7, Design Size Resistive Defrost Heater Capacity [W], 5153.25585
 Component Sizing Information, Coil:Heating:DX:SingleSpeed, COIL HEATING DX SINGLE SPEED 7, User-Specified Resistive Defrost Heater Capacity [W], 2000.00000
 DX Heating Coil Standard Rating Information, Coil:Heating:DX:SingleSpeed, COIL HEATING DX SINGLE SPEED 7, 5400.2, 3007.6, 6.89, 4
 Component Sizing Information, Coil:Heating:Electric, COIL HEATING ELECTRIC 7, Design Size Nominal Capacity [W], 929.53120
 Component Sizing Information, Controller:OutdoorAir, CONTROLLER OUTDOOR AIR 8, Maximum Outdoor Air Flow Rate [m3/s], 0.59090
 Component Sizing Information, Controller:OutdoorAir, CONTROLLER OUTDOOR AIR 8, Minimum Outdoor Air Flow Rate [m3/s], 5.81911E-002
 Component Sizing Information, Coil:Cooling:DX:SingleSpeed, COIL COOLING DX SINGLE SPEED 8, Design Size Rated Air Flow Rate [m3/s], 0.59090
 Component Sizing Information, Coil:Cooling:DX:SingleSpeed, COIL COOLING DX SINGLE SPEED 8, Design Size Gross Rated Total Cooling Capacity [W], 11545.70759
 Component Sizing Information, Coil:Cooling:DX:SingleSpeed, COIL COOLING DX SINGLE SPEED 8, Design Size Gross Rated Sensible Heat Ratio, 0.78148
 DX Cooling Coil Standard Rating Information, Coil:Cooling:DX:SingleSpeed, COIL COOLING DX SINGLE SPEED 8, 11117.8, 2.77, 9.45, 9.52, 9.58
 Component Sizing Information, AirLoopHVAC:UnitaryHeatPump:AirToAir, AIR LOOP HVAC UNITARY HEAT PUMP AIR TO AIR 8, Supply Air Flow Rate [m3/s], 0.59090
 Component Sizing Information, AirLoopHVAC:UnitaryHeatPump:AirToAir, AIR LOOP HVAC UNITARY HEAT PUMP AIR TO AIR 8, Supply Air Flow Rate During Heating Operation [m3/s], 0.59090
 Component Sizing Information, AirLoopHVAC:UnitaryHeatPump:AirToAir, AIR LOOP HVAC UNITARY HEAT PUMP AIR TO AIR 8, Supply Air Flow Rate During Cooling Operation [m3/s], 0.59090
 Component Sizing Information, AirLoopHVAC:UnitaryHeatPump:AirToAir, AIR LOOP HVAC UNITARY HEAT PUMP AIR TO AIR 8, Supply Air Flow Rate When No Cooling or Heating is Needed [m3/s], 0.59090
 Component Sizing Information, AirLoopHVAC:UnitaryHeatPump:AirToAir, AIR LOOP HVAC UNITARY HEAT PUMP AIR TO AIR 8, Nominal Heating Capacity [W], 11545.70759
 Component Sizing Information, AirLoopHVAC:UnitaryHeatPump:AirToAir, AIR LOOP HVAC UNITARY HEAT PUMP AIR TO AIR 8, Nominal Cooling Capacity [W], 11545.70759
 Component Sizing Information, AirLoopHVAC:UnitaryHeatPump:AirToAir, AIR LOOP HVAC UNITARY HEAT PUMP AIR TO AIR 8, Maximum Supply Air Temperature from Supplemental Heater [C], 40.00000
 Component Sizing Information, AirLoopHVAC:UnitaryHeatPump:AirToAir, AIR LOOP HVAC UNITARY HEAT PUMP AIR TO AIR 8, Supplemental Heating Coil Nominal Capacity [W], 2232.89542
 Component Sizing Information, AirLoopHVAC:UnitaryHeatPump:AirToAir, AIR LOOP HVAC UNITARY HEAT PUMP AIR TO AIR 8, Fraction of Supply Air Flow That Goes Through the Controlling Zone, 1.00000
 Component Sizing Information, Fan:ConstantVolume, AIRLOOP AIR_HANDLERS-573_8_BLK_FAN_1413.8750782361312CFM, Design Size Maximum Flow Rate [m3/s], 0.59090
 Component Sizing Information, Coil:Heating:DX:SingleSpeed, COIL HEATING DX SINGLE SPEED 8, Design Size Rated Air Flow Rate [m3/s], 0.59090
 Component Sizing Information, Coil:Heating:DX:SingleSpeed, COIL HEATING DX SINGLE SPEED 8, Design Size Gross Rated Heating Capacity [W], 11545.70759
 Component Sizing Information, Coil:Heating:DX:SingleSpeed, COIL HEATING DX SINGLE SPEED 8, Design Size Resistive Defrost Heater Capacity [W], 11545.70759
 Component Sizing Information, Coil:Heating:DX:SingleSpeed, COIL HEATING DX SINGLE SPEED 8, User-Specified Resistive Defrost Heater Capacity [W], 2000.00000
 DX Heating Coil Standard Rating Information, Coil:Heating:DX:SingleSpeed, COIL HEATING DX SINGLE SPEED 8, 12016.7, 6656.0, 6.97, 4
 Component Sizing Information, Coil:Heating:Electric, COIL HEATING ELECTRIC 8, Design Size Nominal Capacity [W], 2232.89542
 Component Sizing Information, Controller:OutdoorAir, CONTROLLER OUTDOOR AIR 9, Maximum Outdoor Air Flow Rate [m3/s], 0.36953
 Component Sizing Information, Controller:OutdoorAir, CONTROLLER OUTDOOR AIR 9, Minimum Outdoor Air Flow Rate [m3/s], 1.72025E-002
 Component Sizing Information, Coil:Cooling:DX:SingleSpeed, COIL COOLING DX SINGLE SPEED 9, Design Size Rated Air Flow Rate [m3/s], 0.36953
 Component Sizing Information, Coil:Cooling:DX:SingleSpeed, COIL COOLING DX SINGLE SPEED 9, Design Size Gross Rated Total Cooling Capacity [W], 6117.07976
 Component Sizing Information, Coil:Cooling:DX:SingleSpeed, COIL COOLING DX SINGLE SPEED 9, Design Size Gross Rated Sensible Heat Ratio, 0.80066
 DX Cooling Coil Standard Rating Information, Coil:Cooling:DX:SingleSpeed, COIL COOLING DX SINGLE SPEED 9, 5846.7, 2.69, 9.19, 9.25, 9.19
 Component Sizing Information, AirLoopHVAC:UnitaryHeatPump:AirToAir, AIR LOOP HVAC UNITARY HEAT PUMP AIR TO AIR 9, Supply Air Flow Rate [m3/s], 0.36953
 Component Sizing Information, AirLoopHVAC:UnitaryHeatPump:AirToAir, AIR LOOP HVAC UNITARY HEAT PUMP AIR TO AIR 9, Supply Air Flow Rate During Heating Operation [m3/s], 0.36953
 Component Sizing Information, AirLoopHVAC:UnitaryHeatPump:AirToAir, AIR LOOP HVAC UNITARY HEAT PUMP AIR TO AIR 9, Supply Air Flow Rate During Cooling Operation [m3/s], 0.36953
 Component Sizing Information, AirLoopHVAC:UnitaryHeatPump:AirToAir, AIR LOOP HVAC UNITARY HEAT PUMP AIR TO AIR 9, Supply Air Flow Rate When No Cooling or Heating is Needed [m3/s], 0.36953
 Component Sizing Information, AirLoopHVAC:UnitaryHeatPump:AirToAir, AIR LOOP HVAC UNITARY HEAT PUMP AIR TO AIR 9, Nominal Heating Capacity [W], 6117.07976
 Component Sizing Information, AirLoopHVAC:UnitaryHeatPump:AirToAir, AIR LOOP HVAC UNITARY HEAT PUMP AIR TO AIR 9, Nominal Cooling Capacity [W], 6117.07976
 Component Sizing Information, AirLoopHVAC:UnitaryHeatPump:AirToAir, AIR LOOP HVAC UNITARY HEAT PUMP AIR TO AIR 9, Maximum Supply Air Temperature from Supplemental Heater [C], 40.00000
 Component Sizing Information, AirLoopHVAC:UnitaryHeatPump:AirToAir, AIR LOOP HVAC UNITARY HEAT PUMP AIR TO AIR 9, Supplemental Heating Coil Nominal Capacity [W], 932.38709
 Component Sizing Information, AirLoopHVAC:UnitaryHeatPump:AirToAir, AIR LOOP HVAC UNITARY HEAT PUMP AIR TO AIR 9, Fraction of Supply Air Flow That Goes Through the Controlling Zone, 1.00000
 Component Sizing Information, Fan:ConstantVolume, AIRLOOP AIR_HANDLERS-573_9_BLK_FAN_417.9703698435279CFM, Design Size Maximum Flow Rate [m3/s], 0.36953
 Component Sizing Information, Coil:Heating:DX:SingleSpeed, COIL HEATING DX SINGLE SPEED 9, Design Size Rated Air Flow Rate [m3/s], 0.36953
 Component Sizing Information, Coil:Heating:DX:SingleSpeed, COIL HEATING DX SINGLE SPEED 9, Design Size Gross Rated Heating Capacity [W], 6117.07976
 Component Sizing Information, Coil:Heating:DX:SingleSpeed, COIL HEATING DX SINGLE SPEED 9, Design Size Resistive Defrost Heater Capacity [W], 6117.07976
 Component Sizing Information, Coil:Heating:DX:SingleSpeed, COIL HEATING DX SINGLE SPEED 9, User-Specified Resistive Defrost Heater Capacity [W], 2000.00000
 DX Heating Coil Standard Rating Information, Coil:Heating:DX:SingleSpeed, COIL HEATING DX SINGLE SPEED 9, 6410.3, 3570.1, 6.90, 4
 Component Sizing Information, Coil:Heating:Electric, COIL HEATING ELECTRIC 9, Design Size Nominal Capacity [W], 932.38709
Water Heater Information,WaterHeater:Mixed,WATER HEATER MIXED 1,7.5708E-002,845000.0,9.211,0.5670
 Component Sizing Information, PlantLoop, SWPLANT WATER_HEATERS-530, Maximum Loop Flow Rate [m3/s], 2.59688E-004
 Component Sizing Information, PlantLoop, SWPLANT WATER_HEATERS-530, Plant Loop Volume [m3], 3.11626E-002
 Component Sizing Information, Pump:VariableSpeed, PUMP VARIABLE SPEED 1, Design Flow Rate [m3/s], 2.59688E-004
 Component Sizing Information, Pump:VariableSpeed, PUMP VARIABLE SPEED 1, Design Power Consumption [W], 66.34695
 Component Sizing Information, WaterHeater:Mixed, WATER HEATER MIXED 1, Use Side Design Flow Rate [m3/s], 2.59688E-004
! <Environment>,Environment Name,Environment Type, Start Date, End Date, Start DayOfWeek, Duration {#days}, Source:Start DayOfWeek,  Use Daylight Saving, Use Holidays, Apply Weekend Holiday Rule,  Use Rain Values, Use Snow Values
! <Environment:Special Days>, Special Day Name, Special Day Type, Source, Start Date, Duration {#days}
! <Environment:Daylight Saving>, Daylight Saving Indicator, Source, Start Date, End Date
! <Environment:WarmupDays>, NumberofWarmupDays
Environment,RUN PERIOD 1,WeatherFileRunPeriod,01/01,12/31,Thursday,365,Use RunPeriod Specified Day,No,No,No,Yes,Yes
Environment:Daylight Saving,No,RunPeriod Object
Environment:WarmupDays,  6
! <Tabular Report>,Style,Unit Conversion
Tabular Report,HTML,None
! <Warmup Convergence Information>,Zone Name,Environment Type/Name,Average Warmup Temperature Difference {deltaC},Std Dev Warmup Temperature Difference {deltaC},Max Temperature Pass/Fail Convergence,Min Temperature Pass/Fail Convergence,Average Warmup Load Difference {W},Std Dev Warmup Load Difference {W},Heating Load Pass/Fail Convergence,Cooling Load Pass/Fail Convergence
 Warmup Convergence Information,BLOCKS-964_MULTIFAMILY_10_CORE,RunPeriod: RUN PERIOD 1,1.7335286636E-002,5.3676878556E-002,Pass,Pass,0.6876329593,1.0764253141,Pass,Pass
 Warmup Convergence Information,BLOCKS-964_MULTIFAMILY_10_EAST PERIMETER,RunPeriod: RUN PERIOD 1,6.0633577641E-002,0.1532466587,Pass,Pass,0.3817272462,0.4528939040,Pass,Pass
 Warmup Convergence Information,BLOCKS-964_MULTIFAMILY_10_NORTH PERIMETER,RunPeriod: RUN PERIOD 1,1.7475948943E-004,4.2685952778E-004,Pass,Pass,0.4151477585,0.4228189669,Pass,Pass
 Warmup Convergence Information,BLOCKS-964_MULTIFAMILY_10_SOUTH PERIMETER,RunPeriod: RUN PERIOD 1,1.5335632900E-004,3.7238972472E-004,Pass,Pass,0.3667366481,0.4265824247,Pass,Pass
 Warmup Convergence Information,BLOCKS-964_MULTIFAMILY_10_WEST PERIMETER,RunPeriod: RUN PERIOD 1,0.1407305925,0.2962478905,Pass,Pass,0.3606631273,0.3995759748,Pass,Pass
 Warmup Convergence Information,BLOCKS-964_MULTIFAMILY_1_CORE,RunPeriod: RUN PERIOD 1,0.1325544276,0.1654490820,Pass,Pass,9.0456778586E-002,0.1079088497,Pass,Pass
 Warmup Convergence Information,BLOCKS-964_MULTIFAMILY_1_EAST PERIMETER,RunPeriod: RUN PERIOD 1,4.6278010987E-005,8.1489850554E-005,Pass,Pass,0.4178237726,0.3864567368,Pass,Pass
 Warmup Convergence Information,BLOCKS-964_MULTIFAMILY_1_NORTH PERIMETER,RunPeriod: RUN PERIOD 1,3.8291679550E-005,9.4251510069E-005,Pass,Pass,0.4261731679,0.3633029076,Pass,Pass
 Warmup Convergence Information,BLOCKS-964_MULTIFAMILY_1_SOUTH PERIMETER,RunPeriod: RUN PERIOD 1,3.4570973533E-005,8.7412504163E-005,Pass,Pass,0.2709021017,0.2659447685,Pass,Pass
 Warmup Convergence Information,BLOCKS-964_MULTIFAMILY_1_WEST PERIMETER,RunPeriod: RUN PERIOD 1,5.2168550888E-005,8.9235049177E-005,Pass,Pass,0.3282475239,0.3330162696,Pass,Pass
 Warmup Convergence Information,BLOCKS-964_MULTIFAMILY_2_CORE,RunPeriod: RUN PERIOD 1,0.1559072046,0.1715441145,Pass,Pass,8.5541914505E-002,7.0037447509E-002,Pass,Pass
 Warmup Convergence Information,BLOCKS-964_MULTIFAMILY_2_EAST PERIMETER,RunPeriod: RUN PERIOD 1,5.8116227672E-005,1.1671440678E-004,Pass,Pass,0.4335228424,0.4085435875,Pass,Pass
 Warmup Convergence Information,BLOCKS-964_MULTIFAMILY_2_NORTH PERIMETER,RunPeriod: RUN PERIOD 1,4.5072682639E-005,1.1568074003E-004,Pass,Pass,0.5477215460,0.6293277560,Pass,Pass
 Warmup Convergence Information,BLOCKS-964_MULTIFAMILY_2_SOUTH PERIMETER,RunPeriod: RUN PERIOD 1,3.9924532007E-005,1.0266590848E-004,Pass,Pass,0.3002007046,0.3037551234,Pass,Pass
 Warmup Convergence Information,BLOCKS-964_MULTIFAMILY_2_WEST PERIMETER,RunPeriod: RUN PERIOD 1,7.0147180415E-005,1.3209561540E-004,Pass,Pass,0.3262836074,0.3442367472,Pass,Pass
 Warmup Convergence Information,BLOCKS-964_MULTIFAMILY_3_CORE,RunPeriod: RUN PERIOD 1,0.1579360574,0.1706096722,Pass,Pass,8.2813766541E-002,6.2890040035E-002,Pass,Pass
 Warmup Convergence Information,BLOCKS-964_MULTIFAMILY_3_EAST PERIMETER,RunPeriod: RUN PERIOD 1,6.6839091516E-005,1.3799492067E-004,Pass,Pass,0.4358515485,0.4277822478,Pass,Pass
 Warmup Convergence Information,BLOCKS-964_MULTIFAMILY_3_NORTH PERIMETER,RunPeriod: RUN PERIOD 1,5.2280977497E-005,1.3501605280E-004,Pass,Pass,0.5030950642,0.4868947736,Pass,Pass
 Warmup Convergence Information,BLOCKS-964_MULTIFAMILY_3_SOUTH PERIMETER,RunPeriod: RUN PERIOD 1,4.6318250420E-005,1.1919911714E-004,Pass,Pass,0.3131001509,0.3248004042,Pass,Pass
 Warmup Convergence Information,BLOCKS-964_MULTIFAMILY_3_WEST PERIMETER,RunPeriod: RUN PERIOD 1,7.8107819518E-005,1.5263713053E-004,Pass,Pass,0.3404549083,0.3670184684,Pass,Pass
 Warmup Convergence Information,BLOCKS-964_MULTIFAMILY_4_CORE,RunPeriod: RUN PERIOD 1,0.1578829641,0.1703267376,Pass,Pass,8.2600043051E-002,6.2505419115E-002,Pass,Pass
 Warmup Convergence Information,BLOCKS-964_MULTIFAMILY_4_EAST PERIMETER,RunPeriod: RUN PERIOD 1,7.3575063002E-005,1.5398289006E-004,Pass,Pass,0.4377794924,0.4422986507,Pass,Pass
 Warmup Convergence Information,BLOCKS-964_MULTIFAMILY_4_NORTH PERIMETER,RunPeriod: RUN PERIOD 1,5.7919616982E-005,1.4965350732E-004,Pass,Pass,0.4870234545,0.4478038322,Pass,Pass
 Warmup Convergence Information,BLOCKS-964_MULTIFAMILY_4_SOUTH PERIMETER,RunPeriod: RUN PERIOD 1,5.1233269671E-005,1.3190354986E-004,Pass,Pass,0.3215148023,0.3388670259,Pass,Pass
 Warmup Convergence Information,BLOCKS-964_MULTIFAMILY_4_WEST PERIMETER,RunPeriod: RUN PERIOD 1,8.2184555291E-005,1.6253713835E-004,Pass,Pass,0.3497074238,0.3819002938,Pass,Pass
 Warmup Convergence Information,BLOCKS-964_MULTIFAMILY_5_CORE,RunPeriod: RUN PERIOD 1,0.1572137708,0.1699915513,Pass,Pass,8.3006417589E-002,6.3422125811E-002,Pass,Pass
 Warmup Convergence Information,BLOCKS-964_MULTIFAMILY_5_EAST PERIMETER,RunPeriod: RUN PERIOD 1,7.8968776367E-005,1.6689724529E-004,Pass,Pass,0.4392478610,0.4535175820,Pass,Pass
 Warmup Convergence Information,BLOCKS-964_MULTIFAMILY_5_NORTH PERIMETER,RunPeriod: RUN PERIOD 1,6.3165628304E-005,1.6133757198E-004,Pass,Pass,0.4787810433,0.4326924216,Pass,Pass
 Warmup Convergence Information,BLOCKS-964_MULTIFAMILY_5_SOUTH PERIMETER,RunPeriod: RUN PERIOD 1,5.5243873092E-005,1.4226088908E-004,Pass,Pass,0.3277757489,0.3495007696,Pass,Pass
 Warmup Convergence Information,BLOCKS-964_MULTIFAMILY_5_WEST PERIMETER,RunPeriod: RUN PERIOD 1,8.5565215013E-005,1.7079301320E-004,Pass,Pass,0.3569376232,0.3931237850,Pass,Pass
 Warmup Convergence Information,BLOCKS-964_MULTIFAMILY_6_CORE,RunPeriod: RUN PERIOD 1,0.1559768623,0.1693508996,Pass,Pass,8.3810494591E-002,6.5432862159E-002,Pass,Pass
 Warmup Convergence Information,BLOCKS-964_MULTIFAMILY_6_EAST PERIMETER,RunPeriod: RUN PERIOD 1,8.3475486012E-005,1.7778756583E-004,Pass,Pass,0.4401691076,0.4623059695,Pass,Pass
 Warmup Convergence Information,BLOCKS-964_MULTIFAMILY_6_NORTH PERIMETER,RunPeriod: RUN PERIOD 1,6.7685039287E-005,1.7133438102E-004,Pass,Pass,0.4736362956,0.4263149437,Pass,Pass
 Warmup Convergence Information,BLOCKS-964_MULTIFAMILY_6_SOUTH PERIMETER,RunPeriod: RUN PERIOD 1,5.8672893118E-005,1.5110094968E-004,Pass,Pass,0.3326788616,0.3579731768,Pass,Pass
 Warmup Convergence Information,BLOCKS-964_MULTIFAMILY_6_WEST PERIMETER,RunPeriod: RUN PERIOD 1,8.8472912584E-005,1.7794323799E-004,Pass,Pass,0.3625707292,0.4022481762,Pass,Pass
 Warmup Convergence Information,BLOCKS-964_MULTIFAMILY_7_CORE,RunPeriod: RUN PERIOD 1,0.1531685853,0.1679022147,Pass,Pass,8.5724078043E-002,7.0936126095E-002,Pass,Pass
 Warmup Convergence Information,BLOCKS-964_MULTIFAMILY_7_EAST PERIMETER,RunPeriod: RUN PERIOD 1,8.7406600164E-005,1.8717356905E-004,Pass,Pass,0.4398412057,0.4677848554,Pass,Pass
 Warmup Convergence Information,BLOCKS-964_MULTIFAMILY_7_NORTH PERIMETER,RunPeriod: RUN PERIOD 1,7.1687176116E-005,1.8013872912E-004,Pass,Pass,0.4682581645,0.4210482224,Pass,Pass
 Warmup Convergence Information,BLOCKS-964_MULTIFAMILY_7_SOUTH PERIMETER,RunPeriod: RUN PERIOD 1,6.1698597691E-005,1.5890069737E-004,Pass,Pass,0.3362769177,0.3644057213,Pass,Pass
 Warmup Convergence Information,BLOCKS-964_MULTIFAMILY_7_WEST PERIMETER,RunPeriod: RUN PERIOD 1,3.1845369289E-003,9.7723433870E-003,Pass,Pass,0.3629892412,0.4044605214,Pass,Pass
 Warmup Convergence Information,BLOCKS-964_MULTIFAMILY_8_CORE,RunPeriod: RUN PERIOD 1,0.1445428238,0.1638770464,Pass,Pass,9.1755700776E-002,8.9478693927E-002,Pass,Pass
 Warmup Convergence Information,BLOCKS-964_MULTIFAMILY_8_EAST PERIMETER,RunPeriod: RUN PERIOD 1,9.0619553387E-005,1.9514116080E-004,Pass,Pass,0.4341774159,0.4659128595,Pass,Pass
 Warmup Convergence Information,BLOCKS-964_MULTIFAMILY_8_NORTH PERIMETER,RunPeriod: RUN PERIOD 1,7.5290654027E-005,1.8803373173E-004,Pass,Pass,0.4620280376,0.4151150008,Pass,Pass
 Warmup Convergence Information,BLOCKS-964_MULTIFAMILY_8_SOUTH PERIMETER,RunPeriod: RUN PERIOD 1,6.4446874510E-005,1.6601054195E-004,Pass,Pass,0.3375010815,0.3677123258,Pass,Pass
 Warmup Convergence Information,BLOCKS-964_MULTIFAMILY_8_WEST PERIMETER,RunPeriod: RUN PERIOD 1,6.4829701573E-003,2.0143046354E-002,Pass,Pass,0.3598885787,0.4027067655,Pass,Pass
 Warmup Convergence Information,BLOCKS-964_MULTIFAMILY_9_CORE,RunPeriod: RUN PERIOD 1,9.6814862609E-002,0.1518780975,Pass,Pass,0.1301147719,0.1428191488,Pass,Pass
 Warmup Convergence Information,BLOCKS-964_MULTIFAMILY_9_EAST PERIMETER,RunPeriod: RUN PERIOD 1,9.2388295314E-005,2.0036280178E-004,Pass,Pass,0.4062660793,0.4345062045,Pass,Pass
 Warmup Convergence Information,BLOCKS-964_MULTIFAMILY_9_NORTH PERIMETER,RunPeriod: RUN PERIOD 1,7.8918438562E-005,1.9548461624E-004,Pass,Pass,0.4404694600,0.3939741378,Pass,Pass
 Warmup Convergence Information,BLOCKS-964_MULTIFAMILY_9_SOUTH PERIMETER,RunPeriod: RUN PERIOD 1,6.6939948554E-005,1.7245039079E-004,Pass,Pass,0.3290022750,0.3589175881,Pass,Pass
 Warmup Convergence Information,BLOCKS-964_MULTIFAMILY_9_WEST PERIMETER,RunPeriod: RUN PERIOD 1,5.2566111047E-003,1.6276441230E-002,Pass,Pass,0.3433092626,0.3823896933,Pass,Pass
! <Program Control Information:Threads/Parallel Sims>, Threading Supported,Maximum Number of Threads, Env Set Threads (OMP_NUM_THREADS), EP Env Set Threads (EP_OMP_NUM_THREADS), IDF Set Threads, Number of Threads Used (Interior Radiant Exchange), Number Nominal Surfaces, Number Parallel Sims
Program Control:Threads/Parallel Sims, No,1, N/A, N/A, N/A, N/A, N/A, N/A
End of Data
