Program Version,EnergyPlus, Version 8.9.0-eba93e8e1b, YMD=2019.08.13 18:13
! <Version>, Version ID
 Version, 8.9
! <Timesteps per Hour>, #TimeSteps, Minutes per TimeStep {minutes}
 Timesteps per Hour,  6, 10
! <System Convergence Limits>, Minimum System TimeStep {minutes}, Max HVAC Iterations, Minimum Plant Iterations, Maximum Plant Iterations
 System Convergence Limits, 1, 20, 2, 8
! <Simulation Control>, Do Zone Sizing, Do System Sizing, Do Plant Sizing, Do Design Days, Do Weather Simulation, Do HVAC Sizing Simulation
 Simulation Control, Yes, Yes, Yes, No, Yes, No
! <Output Reporting Tolerances>, Tolerance for Time Heating Setpoint Not Met, Tolerance for Zone Cooling Setpoint Not Met Time
 Output Reporting Tolerances, 1.000, 1.000, 
! <Site:GroundTemperature:BuildingSurface>,Jan{C},Feb{C},Mar{C},Apr{C},May{C},Jun{C},Jul{C},Aug{C},Sep{C},Oct{C},Nov{C},Dec{C}
 Site:GroundTemperature:BuildingSurface,  19.53,  19.50,  19.54,  19.60,  20.00,  21.64,  22.23,  22.38,  21.45,  20.12,  19.80,  19.63
! <Site:GroundTemperature:FCfactorMethod>,Jan{C},Feb{C},Mar{C},Apr{C},May{C},Jun{C},Jul{C},Aug{C},Sep{C},Oct{C},Nov{C},Dec{C}
 Site:GroundTemperature:FCfactorMethod, -21.09, -22.83, -19.75, -14.93,  -2.32,   7.41,  13.97,  15.97,  12.57,   5.01,  -5.08, -14.45
! <Site:GroundTemperature:Shallow>,Jan{C},Feb{C},Mar{C},Apr{C},May{C},Jun{C},Jul{C},Aug{C},Sep{C},Oct{C},Nov{C},Dec{C}
 Site:GroundTemperature:Shallow,  13.00,  13.00,  13.00,  13.00,  13.00,  13.00,  13.00,  13.00,  13.00,  13.00,  13.00,  13.00
! <Site:GroundTemperature:Deep>,Jan{C},Feb{C},Mar{C},Apr{C},May{C},Jun{C},Jul{C},Aug{C},Sep{C},Oct{C},Nov{C},Dec{C}
 Site:GroundTemperature:Deep,  16.00,  16.00,  16.00,  16.00,  16.00,  16.00,  16.00,  16.00,  16.00,  16.00,  16.00,  16.00
! <Site:GroundReflectance>,Jan{dimensionless},Feb{dimensionless},Mar{dimensionless},Apr{dimensionless},May{dimensionless},Jun{dimensionless},Jul{dimensionless},Aug{dimensionless},Sep{dimensionless},Oct{dimensionless},Nov{dimensionless},Dec{dimensionless}
 Site:GroundReflectance,  0.20,  0.20,  0.20,  0.20,  0.20,  0.20,  0.20,  0.20,  0.20,  0.20,  0.20,  0.20
! <Site:GroundReflectance:SnowModifier>, Normal, Daylighting {dimensionless}
 Site:GroundReflectance:SnowModifier,   1.000,   1.000
! <Site:GroundReflectance:Snow>,Jan{dimensionless},Feb{dimensionless},Mar{dimensionless},Apr{dimensionless},May{dimensionless},Jun{dimensionless},Jul{dimensionless},Aug{dimensionless},Sep{dimensionless},Oct{dimensionless},Nov{dimensionless},Dec{dimensionless}
 Site:GroundReflectance:Snow,  0.20,  0.20,  0.20,  0.20,  0.20,  0.20,  0.20,  0.20,  0.20,  0.20,  0.20,  0.20
! <Site:GroundReflectance:Snow:Daylighting>,Jan{dimensionless},Feb{dimensionless},Mar{dimensionless},Apr{dimensionless},May{dimensionless},Jun{dimensionless},Jul{dimensionless},Aug{dimensionless},Sep{dimensionless},Oct{dimensionless},Nov{dimensionless},Dec{dimensionless}
 Site:GroundReflectance:Snow:Daylighting,  0.20,  0.20,  0.20,  0.20,  0.20,  0.20,  0.20,  0.20,  0.20,  0.20,  0.20,  0.20
! <Environment:Weather Station>,Wind Sensor Height Above Ground {m},Wind Speed Profile Exponent {},Wind Speed Profile Boundary Layer Thickness {m},Air Temperature Sensor Height Above Ground {m},Wind Speed Modifier Coefficient-Internal,Temperature Modifier Coefficient-Internal
Environment:Weather Station,10.000,0.140,270.000,1.500,1.586,9.750E-003
! <Site:Location>, Location Name, Latitude {N+/S- Deg}, Longitude {E+/W- Deg},  Time Zone Number {GMT+/-}, Elevation {m},  Standard Pressure at Elevation {Pa}, Standard RhoAir at Elevation
Site:Location,Yellowknife AP NT CAN CWEC2016 WMO#=719360,62.46,-114.44,-7.00,205.70,98878,1.1752
! <Building Information>, Building Name,North Axis {deg},Terrain,  Loads Convergence Tolerance Value,Temperature Convergence Tolerance Value,  Solar Distribution,Maximum Number of Warmup Days,Minimum Number of Warmup Days
 Building Information,SecondarySchool-CAN_NT_Yellowknife.AP.719360_CWEC2016.epw created: 2019-08-08 03:10:36 +0000,0.000,City,4.00000E-002,0.20000,FullInteriorAndExterior,25,6
! <Inside Convection Algorithm>, Algorithm {Simple | TARP | CeilingDiffuser | AdaptiveConvectionAlgorithm}
Inside Convection Algorithm,TARP
! <Outside Convection Algorithm>, Algorithm {SimpleCombined | TARP | MoWitt | DOE-2 | AdaptiveConvectionAlgorithm}
Outside Convection Algorithm,TARP
! <Sky Radiance Distribution>, Value {Anisotropic}
Sky Radiance Distribution,Anisotropic
! <Zone Air Solution Algorithm>, Value {ThirdOrderBackwardDifference | AnalyticalSolution | EulerMethod}
 Zone Air Solution Algorithm, AnalyticalSolution
! <Zone Air Carbon Dioxide Balance Simulation>, Simulation {Yes/No}, Carbon Dioxide Concentration
 Zone Air Carbon Dioxide Balance Simulation, No,N/A
! <Zone Air Generic Contaminant Balance Simulation>, Simulation {Yes/No}, Generic Contaminant Concentration
 Zone Air Generic Contaminant Balance Simulation, No,N/A
! <Zone Air Mass Flow Balance Simulation>, Enforce Mass Balance, Adjust Zone Mixing, Adjust Zone Infiltration {AddInfiltration | AdjustInfiltration | None}, Infiltration Zones {MixingSourceZonesOnly | AllZones}
 Zone Air Mass Flow Balance Simulation, No,N/A,N/A,N/A
! <HVACSystemRootFindingAlgorithm>, Value {RegulaFalsi | Bisection | BisectionThenRegulaFalsi | RegulaFalsiThenBisection}
 HVACSystemRootFindingAlgorithm, RegulaFalsi
! <Environment:Site Atmospheric Variation>,Wind Speed Profile Exponent {},Wind Speed Profile Boundary Layer Thickness {m},Air Temperature Gradient Coefficient {K/m}
Environment:Site Atmospheric Variation,0.330,460.000,6.500000E-003
! <Surface Geometry>,Starting Corner,Vertex Input Direction,Coordinate System,Daylight Reference Point Coordinate System,Rectangular (Simple) Surface Coordinate System
 Surface Geometry,UpperLeftCorner,Counterclockwise,RelativeCoordinateSystem,RelativeCoordinateSystem,RelativeToZoneOrigin
! <Surface Heat Transfer Algorithm>, Value {CTF - ConductionTransferFunction | EMPD - MoisturePenetrationDepthConductionTransferFunction | CondFD - ConductionFiniteDifference | HAMT - CombinedHeatAndMoistureFiniteElement} - Description,Inside Surface Max Temperature Limit{C}, Surface Convection Coefficient Lower Limit {W/m2-K}, Surface Convection Coefficient Upper Limit {W/m2-K}
Surface Heat Transfer Algorithm, CTF - ConductionTransferFunction,200,0.10,1000.0
! <Shading Summary>, Number of Fixed Detached Shades, Number of Building Detached Shades, Number of Attached Shades
 Shading Summary,0,0,36
! <Zone Summary>, Number of Zones, Number of Zone Surfaces, Number of SubSurfaces
 Zone Summary,26,393,67
! <Zone Information>,Zone Name,North Axis {deg},Origin X-Coordinate {m},Origin Y-Coordinate {m},Origin Z-Coordinate {m},Centroid X-Coordinate {m},Centroid Y-Coordinate {m},Centroid Z-Coordinate {m},Type,Zone Multiplier,Zone List Multiplier,Minimum X {m},Maximum X {m},Minimum Y {m},Maximum Y {m},Minimum Z {m},Maximum Z {m},Ceiling Height {m},Volume {m3},Zone Inside Convection Algorithm {Simple-Detailed-CeilingDiffuser-TrombeWall},Zone Outside Convection Algorithm {Simple-Detailed-Tarp-MoWitt-DOE-2-BLAST}, Floor Area {m2},Exterior Gross Wall Area {m2},Exterior Net Wall Area {m2},Exterior Window Area {m2}, Number of Surfaces, Number of SubSurfaces, Number of Shading SubSurfaces,  Part of Total Building Area
 Zone Information, ALL_ST=AUDIENCE SEATING AREA PERMANENT - AUDITORIUM_FL=BUILDING STORY 1_SCH=C,0.0,79.00,75.00,0.00,98.00,88.00,4.00,1,1,1,79.00,117.00,75.00,101.00,0.00,8.00,8.00,7904.00,TARP,TARP,988.00,304.00,279.68,24.32,12,2,0,Yes
 Zone Information, ALL_ST=CLASSROOM/LECTURE HALL/TRAINING ROOM OTHER_FL=BUILDING STORY 1_SCH=D,0.0,0.00,0.00,0.00,5.50,44.83,2.00,1,1,1,0.00,11.00,0.00,90.00,0.00,4.00,4.00,1188.00,TARP,TARP,297.00,240.00,220.80,19.20,18,6,6,Yes
 Zone Information, ALL_ST=CLASSROOM/LECTURE HALL/TRAINING ROOM OTHER_FL=BUILDING STORY 1_SCH=D 1,0.0,11.00,14.00,0.00,37.50,58.83,2.00,1,1,1,11.00,64.00,14.00,104.00,0.00,4.00,4.00,5724.00,TARP,TARP,1431.00,636.00,585.12,50.88,18,3,0,Yes
 Zone Information, ALL_ST=CLASSROOM/LECTURE HALL/TRAINING ROOM OTHER_FL=BUILDING STORY 1_SCH=D 2,0.0,11.00,0.00,0.00,37.50,44.83,2.00,1,1,1,11.00,64.00,0.00,90.00,0.00,4.00,4.00,5724.00,TARP,TARP,1431.00,636.00,585.12,50.88,18,3,6,Yes
 Zone Information, ALL_ST=CLASSROOM/LECTURE HALL/TRAINING ROOM OTHER_FL=BUILDING STORY 1_SCH=D 3,0.0,0.00,14.00,0.00,5.50,58.83,2.00,1,1,1,0.00,11.00,14.00,104.00,0.00,4.00,4.00,1188.00,TARP,TARP,297.00,240.00,220.80,19.20,18,6,0,Yes
 Zone Information, ALL_ST=CLASSROOM/LECTURE HALL/TRAINING ROOM OTHER_FL=BUILDING STORY 2_SCH=D,0.0,0.00,14.00,4.00,5.50,58.83,6.00,1,1,1,0.00,11.00,14.00,104.00,4.00,8.00,4.00,1188.00,TARP,TARP,297.00,240.00,220.80,19.20,18,6,0,Yes
 Zone Information, ALL_ST=CLASSROOM/LECTURE HALL/TRAINING ROOM OTHER_FL=BUILDING STORY 2_SCH=D 1,0.0,11.00,0.00,4.00,37.50,44.83,6.00,1,1,1,11.00,64.00,0.00,90.00,4.00,8.00,4.00,5724.00,TARP,TARP,1431.00,636.00,585.12,50.88,18,3,6,Yes
 Zone Information, ALL_ST=CLASSROOM/LECTURE HALL/TRAINING ROOM OTHER_FL=BUILDING STORY 2_SCH=D 2,0.0,11.00,14.00,4.00,37.50,58.83,6.00,1,1,1,11.00,64.00,14.00,104.00,4.00,8.00,4.00,5724.00,TARP,TARP,1431.00,636.00,585.12,50.88,18,3,0,Yes
 Zone Information, ALL_ST=CLASSROOM/LECTURE HALL/TRAINING ROOM OTHER_FL=BUILDING STORY 2_SCH=D 3,0.0,0.00,0.00,4.00,5.50,44.83,6.00,1,1,1,0.00,11.00,0.00,90.00,4.00,8.00,4.00,1188.00,TARP,TARP,297.00,240.00,220.80,19.20,18,6,6,Yes
 Zone Information, ALL_ST=CONFERENCE/MEETING/MULTI-PURPOSE ROOM_FL=BUILDING STORY 1_SCH=C,0.0,117.00,75.00,0.00,129.00,88.00,2.00,1,1,1,117.00,141.00,75.00,101.00,0.00,4.00,4.00,2496.00,TARP,TARP,624.00,200.00,184.00,16.00,6,2,0,Yes
 Zone Information, ALL_ST=FOOD PREPARATION AREA_FL=BUILDING STORY 1_SCH=B,0.0,117.00,66.00,0.00,129.00,70.50,2.00,1,1,1,117.00,141.00,66.00,75.00,0.00,4.00,4.00,864.00,TARP,TARP,216.00,36.00,33.12,2.88,6,1,0,Yes
 Zone Information, ALL_ST=GYMNASIUM/FITNESS CENTRE PLAYING AREA_FL=BUILDING STORY 1_SCH=B,0.0,79.00,14.00,0.00,98.00,40.00,4.00,1,1,1,79.00,117.00,14.00,66.00,0.00,8.00,8.00,15808.00,TARP,TARP,1976.00,0.00,0.00,0.00,10,0,0,Yes
 Zone Information, ALL_ST=GYMNASIUM/FITNESS CENTRE PLAYING AREA_FL=BUILDING STORY 1_SCH=B 1,0.0,117.00,14.00,0.00,129.00,40.00,4.00,1,1,1,117.00,141.00,14.00,66.00,0.00,8.00,8.00,9984.00,TARP,TARP,1248.00,608.00,559.36,48.64,10,4,4,Yes
 Zone Information, ALL_ST=LIBRARY READING AREA_FL=BUILDING STORY 2_SCH=C,0.0,117.00,66.00,4.00,129.00,83.50,6.00,1,1,1,117.00,141.00,66.00,101.00,4.00,8.00,4.00,3360.00,TARP,TARP,840.00,236.00,217.12,18.88,8,2,0,Yes
 Zone Information, ALL_ST=LOBBY - OTHER_FL=BUILDING STORY 1_SCH=C,0.0,64.00,0.00,0.00,71.50,7.00,2.00,1,1,1,64.00,79.00,0.00,14.00,0.00,4.00,4.00,840.00,TARP,TARP,210.00,60.00,55.20,4.80,7,1,2,Yes
 Zone Information, ALL_ST=LOBBY - OTHER_FL=BUILDING STORY 2_SCH=C,0.0,64.00,0.00,4.00,71.50,7.00,6.00,1,1,1,64.00,79.00,0.00,14.00,4.00,8.00,4.00,840.00,TARP,TARP,210.00,60.00,55.20,4.80,7,1,2,Yes
 Zone Information, ALL_ST=OFFICE ENCLOSED <= 25 M2_FL=BUILDING STORY 1_SCH=A,0.0,79.00,0.00,0.00,98.00,7.00,2.00,1,1,1,79.00,117.00,0.00,14.00,0.00,4.00,4.00,2128.00,TARP,TARP,532.00,208.00,191.36,16.64,6,2,2,Yes
 Zone Information, ALL_ST=OFFICE ENCLOSED <= 25 M2_FL=BUILDING STORY 2_SCH=A,0.0,79.00,0.00,4.00,98.00,7.00,6.00,1,1,1,79.00,117.00,0.00,14.00,4.00,8.00,4.00,2128.00,TARP,TARP,532.00,208.00,191.36,16.64,6,2,2,Yes
 Zone Information, WET_ST=WASHROOM - OTHER-SCH-D_FL=BUILDING STORY 1_SCHD,0.0,64.00,90.00,0.00,71.50,97.00,2.00,1,1,1,64.00,79.00,90.00,104.00,0.00,4.00,4.00,840.00,TARP,TARP,210.00,72.00,66.24,5.76,8,2,0,Yes
 Zone Information, WET_ST=WASHROOM - OTHER-SCH-D_FL=BUILDING STORY 2_SCHD,0.0,64.00,90.00,4.00,71.50,97.00,6.00,1,1,1,64.00,79.00,90.00,104.00,4.00,8.00,4.00,840.00,TARP,TARP,210.00,72.00,66.24,5.76,8,2,0,Yes
 Zone Information, WILD_ST=CORRIDOR/TRANSITION AREA OTHER-SCH-D_FL=BUILDING STORY 1_SCH=D,0.0,64.00,14.00,0.00,71.50,52.00,2.00,1,1,1,64.00,79.00,14.00,90.00,0.00,4.00,4.00,4560.00,TARP,TARP,1140.00,140.00,128.80,11.20,14,2,0,Yes
 Zone Information, WILD_ST=CORRIDOR/TRANSITION AREA OTHER-SCH-D_FL=BUILDING STORY 1_SCH=D 1,0.0,0.00,9.00,0.00,32.00,51.83,2.00,1,1,1,0.00,64.00,9.00,95.00,0.00,4.00,4.00,3840.00,TARP,TARP,960.00,60.00,55.20,4.80,24,3,0,Yes
 Zone Information, WILD_ST=CORRIDOR/TRANSITION AREA OTHER-SCH-D_FL=BUILDING STORY 2_SCH=D,0.0,64.00,14.00,4.00,71.50,52.00,6.00,1,1,1,64.00,79.00,14.00,90.00,4.00,8.00,4.00,4560.00,TARP,TARP,1140.00,140.00,128.80,11.20,14,2,0,Yes
 Zone Information, WILD_ST=CORRIDOR/TRANSITION AREA OTHER-SCH-D_FL=BUILDING STORY 2_SCH=D 1,0.0,0.00,9.00,4.00,32.00,51.83,6.00,1,1,1,0.00,64.00,9.00,95.00,4.00,8.00,4.00,3840.00,TARP,TARP,960.00,60.00,55.20,4.80,24,3,0,Yes
 Zone Information, WILD_ST=ELECTRICAL/MECHANICAL ROOM-SCH-D_FL=BUILDING STORY 1_SCH=D,0.0,79.00,66.00,0.00,98.00,70.50,2.00,1,1,1,79.00,117.00,66.00,75.00,0.00,4.00,4.00,1368.00,TARP,TARP,342.00,0.00,0.00,0.00,6,0,0,Yes
 Zone Information, WILD_ST=ELECTRICAL/MECHANICAL ROOM-SCH-D_FL=BUILDING STORY 2_SCH=D,0.0,79.00,66.00,4.00,98.00,70.50,6.00,1,1,1,79.00,117.00,66.00,75.00,4.00,8.00,4.00,1368.00,TARP,TARP,342.00,0.00,0.00,0.00,6,0,0,Yes
! <Zone Internal Gains Nominal>,Zone Name, Floor Area {m2},# Occupants,Area per Occupant {m2/person},Occupant per Area {person/m2},Interior Lighting {W/m2},Electric Load {W/m2},Gas Load {W/m2},Other Load {W/m2},Hot Water Eq {W/m2},Steam Equipment {W/m2},Sum Loads per Area {W/m2},Outdoor Controlled Baseboard Heat
 Zone Internal Gains Nominal, ALL_ST=AUDIENCE SEATING AREA PERMANENT - AUDITORIUM_FL=BUILDING STORY 1_SCH=C,988.00,197.7,4.998,0.200,1.950,1.250,0.000,0.000,0.000,0.000,3.200,No
 Zone Internal Gains Nominal, ALL_ST=CLASSROOM/LECTURE HALL/TRAINING ROOM OTHER_FL=BUILDING STORY 1_SCH=D,297.00,39.6,7.497,0.133,2.280,2.501,0.000,0.000,0.000,0.000,4.781,No
 Zone Internal Gains Nominal, ALL_ST=CLASSROOM/LECTURE HALL/TRAINING ROOM OTHER_FL=BUILDING STORY 1_SCH=D 1,1431.00,190.9,7.497,0.133,2.280,2.501,0.000,0.000,0.000,0.000,4.781,No
 Zone Internal Gains Nominal, ALL_ST=CLASSROOM/LECTURE HALL/TRAINING ROOM OTHER_FL=BUILDING STORY 1_SCH=D 2,1431.00,190.9,7.497,0.133,2.280,2.501,0.000,0.000,0.000,0.000,4.781,No
 Zone Internal Gains Nominal, ALL_ST=CLASSROOM/LECTURE HALL/TRAINING ROOM OTHER_FL=BUILDING STORY 1_SCH=D 3,297.00,39.6,7.497,0.133,2.280,2.501,0.000,0.000,0.000,0.000,4.781,No
 Zone Internal Gains Nominal, ALL_ST=CLASSROOM/LECTURE HALL/TRAINING ROOM OTHER_FL=BUILDING STORY 2_SCH=D,297.00,39.6,7.497,0.133,2.280,2.501,0.000,0.000,0.000,0.000,4.781,No
 Zone Internal Gains Nominal, ALL_ST=CLASSROOM/LECTURE HALL/TRAINING ROOM OTHER_FL=BUILDING STORY 2_SCH=D 1,1431.00,190.9,7.497,0.133,2.280,2.501,0.000,0.000,0.000,0.000,4.781,No
 Zone Internal Gains Nominal, ALL_ST=CLASSROOM/LECTURE HALL/TRAINING ROOM OTHER_FL=BUILDING STORY 2_SCH=D 2,1431.00,190.9,7.497,0.133,2.280,2.501,0.000,0.000,0.000,0.000,4.781,No
 Zone Internal Gains Nominal, ALL_ST=CLASSROOM/LECTURE HALL/TRAINING ROOM OTHER_FL=BUILDING STORY 2_SCH=D 3,297.00,39.6,7.497,0.133,2.280,2.501,0.000,0.000,0.000,0.000,4.781,No
 Zone Internal Gains Nominal, ALL_ST=CONFERENCE/MEETING/MULTI-PURPOSE ROOM_FL=BUILDING STORY 1_SCH=C,624.00,124.8,4.998,0.200,0.630,0.500,0.000,0.000,0.000,0.000,1.130,No
 Zone Internal Gains Nominal, ALL_ST=FOOD PREPARATION AREA_FL=BUILDING STORY 1_SCH=B,216.00,10.8,19.993,5.002E-002,3.510,5.002,0.000,0.000,0.000,0.000,8.512,No
 Zone Internal Gains Nominal, ALL_ST=GYMNASIUM/FITNESS CENTRE PLAYING AREA_FL=BUILDING STORY 1_SCH=B,1976.00,395.3,4.998,0.200,2.760,0.750,0.000,0.000,0.000,0.000,3.510,No
 Zone Internal Gains Nominal, ALL_ST=GYMNASIUM/FITNESS CENTRE PLAYING AREA_FL=BUILDING STORY 1_SCH=B 1,1248.00,249.7,4.998,0.200,2.760,0.750,0.000,0.000,0.000,0.000,3.510,No
 Zone Internal Gains Nominal, ALL_ST=LIBRARY READING AREA_FL=BUILDING STORY 2_SCH=C,840.00,42.0,19.993,5.002E-002,3.090,0.500,0.000,0.000,0.000,0.000,3.590,No
 Zone Internal Gains Nominal, ALL_ST=LOBBY - OTHER_FL=BUILDING STORY 1_SCH=C,210.00,21.0,9.996,0.100,2.700,0.500,0.000,0.000,0.000,0.000,3.200,No
 Zone Internal Gains Nominal, ALL_ST=LOBBY - OTHER_FL=BUILDING STORY 2_SCH=C,210.00,21.0,9.996,0.100,2.700,0.500,0.000,0.000,0.000,0.000,3.200,No
 Zone Internal Gains Nominal, ALL_ST=OFFICE ENCLOSED <= 25 M2_FL=BUILDING STORY 1_SCH=A,532.00,26.6,19.993,5.002E-002,2.400,3.751,0.000,0.000,0.000,0.000,6.151,No
 Zone Internal Gains Nominal, ALL_ST=OFFICE ENCLOSED <= 25 M2_FL=BUILDING STORY 2_SCH=A,532.00,26.6,19.993,5.002E-002,2.400,3.751,0.000,0.000,0.000,0.000,6.151,No
 Zone Internal Gains Nominal, WET_ST=WASHROOM - OTHER-SCH-D_FL=BUILDING STORY 1_SCHD,210.00,7.0,29.989,3.335E-002,2.040,0.500,0.000,0.000,0.000,0.000,2.540,No
 Zone Internal Gains Nominal, WET_ST=WASHROOM - OTHER-SCH-D_FL=BUILDING STORY 2_SCHD,210.00,7.0,29.989,3.335E-002,2.040,0.500,0.000,0.000,0.000,0.000,2.540,No
 Zone Internal Gains Nominal, WILD_ST=CORRIDOR/TRANSITION AREA OTHER-SCH-D_FL=BUILDING STORY 1_SCH=D,1140.00,11.4,99.964,1.000E-002,1.320,0.000,0.000,0.000,0.000,0.000,1.320,No
 Zone Internal Gains Nominal, WILD_ST=CORRIDOR/TRANSITION AREA OTHER-SCH-D_FL=BUILDING STORY 1_SCH=D 1,960.00,9.6,99.964,1.000E-002,1.320,0.000,0.000,0.000,0.000,0.000,1.320,No
 Zone Internal Gains Nominal, WILD_ST=CORRIDOR/TRANSITION AREA OTHER-SCH-D_FL=BUILDING STORY 2_SCH=D,1140.00,11.4,99.964,1.000E-002,1.320,0.000,0.000,0.000,0.000,0.000,1.320,No
 Zone Internal Gains Nominal, WILD_ST=CORRIDOR/TRANSITION AREA OTHER-SCH-D_FL=BUILDING STORY 2_SCH=D 1,960.00,9.6,99.964,1.000E-002,1.320,0.000,0.000,0.000,0.000,0.000,1.320,No
 Zone Internal Gains Nominal, WILD_ST=ELECTRICAL/MECHANICAL ROOM-SCH-D_FL=BUILDING STORY 1_SCH=D,342.00,1.7,199.927,5.002E-003,1.380,0.500,0.000,0.000,0.000,0.000,1.880,No
 Zone Internal Gains Nominal, WILD_ST=ELECTRICAL/MECHANICAL ROOM-SCH-D_FL=BUILDING STORY 2_SCH=D,342.00,1.7,199.927,5.002E-003,1.380,0.500,0.000,0.000,0.000,0.000,1.880,No
! <People Internal Gains Nominal>,Name,Schedule Name,Zone Name,Zone Floor Area {m2},# Zone Occupants,Number of People {},People/Floor Area {person/m2},Floor Area per person {m2/person},Fraction Radiant,Fraction Convected,Sensible Fraction Calculation,Activity level,ASHRAE 55 Warnings,Carbon Dioxide Generation Rate,Nominal Minimum Number of People,Nominal Maximum Number of People
 People Internal Gains Nominal, ALL_ST=AUDIENCE SEATING AREA PERMANENT - AUDITORIUM_FL=BUILDING STORY 1_SCH=C SPACE FUNCTION AUDIENCE SEATING AREA PERMANENT - AUDITORIUM PEOPLE,NECB-C-OCCUPANCY,ALL_ST=AUDIENCE SEATING AREA PERMANENT - AUDITORIUM_FL=BUILDING STORY 1_SCH=C,988.00,197.7,197.7,0.200,4.998,0.300,0.700,AutoCalculate,NECB-ACTIVITY,No,3.8200E-008,0,178
 People Internal Gains Nominal, ALL_ST=CLASSROOM/LECTURE HALL/TRAINING ROOM OTHER_FL=BUILDING STORY 1_SCH=D SPACE FUNCTION CLASSROOM/LECTURE HALL/TRAINING ROOM OTHER PEOPLE,NECB-D-OCCUPANCY,ALL_ST=CLASSROOM/LECTURE HALL/TRAINING ROOM OTHER_FL=BUILDING STORY 1_SCH=D,297.00,39.6,39.6,0.133,7.497,0.300,0.700,AutoCalculate,NECB-ACTIVITY,No,3.8200E-008,0,36
 People Internal Gains Nominal, ALL_ST=CLASSROOM/LECTURE HALL/TRAINING ROOM OTHER_FL=BUILDING STORY 1_SCH=D 1 SPACE FUNCTION CLASSROOM/LECTURE HALL/TRAINING ROOM OTHER PEOPLE,NECB-D-OCCUPANCY,ALL_ST=CLASSROOM/LECTURE HALL/TRAINING ROOM OTHER_FL=BUILDING STORY 1_SCH=D 1,1431.00,190.9,190.9,0.133,7.497,0.300,0.700,AutoCalculate,NECB-ACTIVITY,No,3.8200E-008,0,172
 People Internal Gains Nominal, ALL_ST=CLASSROOM/LECTURE HALL/TRAINING ROOM OTHER_FL=BUILDING STORY 1_SCH=D 2 SPACE FUNCTION CLASSROOM/LECTURE HALL/TRAINING ROOM OTHER PEOPLE,NECB-D-OCCUPANCY,ALL_ST=CLASSROOM/LECTURE HALL/TRAINING ROOM OTHER_FL=BUILDING STORY 1_SCH=D 2,1431.00,190.9,190.9,0.133,7.497,0.300,0.700,AutoCalculate,NECB-ACTIVITY,No,3.8200E-008,0,172
 People Internal Gains Nominal, ALL_ST=CLASSROOM/LECTURE HALL/TRAINING ROOM OTHER_FL=BUILDING STORY 1_SCH=D 3 SPACE FUNCTION CLASSROOM/LECTURE HALL/TRAINING ROOM OTHER PEOPLE,NECB-D-OCCUPANCY,ALL_ST=CLASSROOM/LECTURE HALL/TRAINING ROOM OTHER_FL=BUILDING STORY 1_SCH=D 3,297.00,39.6,39.6,0.133,7.497,0.300,0.700,AutoCalculate,NECB-ACTIVITY,No,3.8200E-008,0,36
 People Internal Gains Nominal, ALL_ST=CLASSROOM/LECTURE HALL/TRAINING ROOM OTHER_FL=BUILDING STORY 2_SCH=D SPACE FUNCTION CLASSROOM/LECTURE HALL/TRAINING ROOM OTHER PEOPLE,NECB-D-OCCUPANCY,ALL_ST=CLASSROOM/LECTURE HALL/TRAINING ROOM OTHER_FL=BUILDING STORY 2_SCH=D,297.00,39.6,39.6,0.133,7.497,0.300,0.700,AutoCalculate,NECB-ACTIVITY,No,3.8200E-008,0,36
 People Internal Gains Nominal, ALL_ST=CLASSROOM/LECTURE HALL/TRAINING ROOM OTHER_FL=BUILDING STORY 2_SCH=D 1 SPACE FUNCTION CLASSROOM/LECTURE HALL/TRAINING ROOM OTHER PEOPLE,NECB-D-OCCUPANCY,ALL_ST=CLASSROOM/LECTURE HALL/TRAINING ROOM OTHER_FL=BUILDING STORY 2_SCH=D 1,1431.00,190.9,190.9,0.133,7.497,0.300,0.700,AutoCalculate,NECB-ACTIVITY,No,3.8200E-008,0,172
 People Internal Gains Nominal, ALL_ST=CLASSROOM/LECTURE HALL/TRAINING ROOM OTHER_FL=BUILDING STORY 2_SCH=D 2 SPACE FUNCTION CLASSROOM/LECTURE HALL/TRAINING ROOM OTHER PEOPLE,NECB-D-OCCUPANCY,ALL_ST=CLASSROOM/LECTURE HALL/TRAINING ROOM OTHER_FL=BUILDING STORY 2_SCH=D 2,1431.00,190.9,190.9,0.133,7.497,0.300,0.700,AutoCalculate,NECB-ACTIVITY,No,3.8200E-008,0,172
 People Internal Gains Nominal, ALL_ST=CLASSROOM/LECTURE HALL/TRAINING ROOM OTHER_FL=BUILDING STORY 2_SCH=D 3 SPACE FUNCTION CLASSROOM/LECTURE HALL/TRAINING ROOM OTHER PEOPLE,NECB-D-OCCUPANCY,ALL_ST=CLASSROOM/LECTURE HALL/TRAINING ROOM OTHER_FL=BUILDING STORY 2_SCH=D 3,297.00,39.6,39.6,0.133,7.497,0.300,0.700,AutoCalculate,NECB-ACTIVITY,No,3.8200E-008,0,36
 People Internal Gains Nominal, ALL_ST=CONFERENCE/MEETING/MULTI-PURPOSE ROOM_FL=BUILDING STORY 1_SCH=C SPACE FUNCTION CONFERENCE/MEETING/MULTI-PURPOSE ROOM PEOPLE,NECB-C-OCCUPANCY,ALL_ST=CONFERENCE/MEETING/MULTI-PURPOSE ROOM_FL=BUILDING STORY 1_SCH=C,624.00,124.8,124.8,0.200,4.998,0.300,0.700,AutoCalculate,NECB-ACTIVITY,No,3.8200E-008,0,112
 People Internal Gains Nominal, WILD_ST=CORRIDOR/TRANSITION AREA OTHER-SCH-D_FL=BUILDING STORY 1_SCH=D SPACE FUNCTION CORRIDOR/TRANSITION AREA OTHER-SCH-D PEOPLE,NECB-D-OCCUPANCY,WILD_ST=CORRIDOR/TRANSITION AREA OTHER-SCH-D_FL=BUILDING STORY 1_SCH=D,1140.00,11.4,11.4,1.000E-002,99.964,0.300,0.700,AutoCalculate,NECB-ACTIVITY,No,3.8200E-008,0,10
 People Internal Gains Nominal, WILD_ST=CORRIDOR/TRANSITION AREA OTHER-SCH-D_FL=BUILDING STORY 1_SCH=D 1 SPACE FUNCTION CORRIDOR/TRANSITION AREA OTHER-SCH-D PEOPLE,NECB-D-OCCUPANCY,WILD_ST=CORRIDOR/TRANSITION AREA OTHER-SCH-D_FL=BUILDING STORY 1_SCH=D 1,960.00,9.6,9.6,1.000E-002,99.964,0.300,0.700,AutoCalculate,NECB-ACTIVITY,No,3.8200E-008,0,9
 People Internal Gains Nominal, WILD_ST=CORRIDOR/TRANSITION AREA OTHER-SCH-D_FL=BUILDING STORY 2_SCH=D SPACE FUNCTION CORRIDOR/TRANSITION AREA OTHER-SCH-D PEOPLE,NECB-D-OCCUPANCY,WILD_ST=CORRIDOR/TRANSITION AREA OTHER-SCH-D_FL=BUILDING STORY 2_SCH=D,1140.00,11.4,11.4,1.000E-002,99.964,0.300,0.700,AutoCalculate,NECB-ACTIVITY,No,3.8200E-008,0,10
 People Internal Gains Nominal, WILD_ST=CORRIDOR/TRANSITION AREA OTHER-SCH-D_FL=BUILDING STORY 2_SCH=D 1 SPACE FUNCTION CORRIDOR/TRANSITION AREA OTHER-SCH-D PEOPLE,NECB-D-OCCUPANCY,WILD_ST=CORRIDOR/TRANSITION AREA OTHER-SCH-D_FL=BUILDING STORY 2_SCH=D 1,960.00,9.6,9.6,1.000E-002,99.964,0.300,0.700,AutoCalculate,NECB-ACTIVITY,No,3.8200E-008,0,9
 People Internal Gains Nominal, WILD_ST=ELECTRICAL/MECHANICAL ROOM-SCH-D_FL=BUILDING STORY 1_SCH=D SPACE FUNCTION ELECTRICAL/MECHANICAL ROOM-SCH-D PEOPLE,NECB-D-OCCUPANCY,WILD_ST=ELECTRICAL/MECHANICAL ROOM-SCH-D_FL=BUILDING STORY 1_SCH=D,342.00,1.7,1.7,5.002E-003,199.927,0.300,0.700,AutoCalculate,NECB-ACTIVITY,No,3.8200E-008,0,2
 People Internal Gains Nominal, WILD_ST=ELECTRICAL/MECHANICAL ROOM-SCH-D_FL=BUILDING STORY 2_SCH=D SPACE FUNCTION ELECTRICAL/MECHANICAL ROOM-SCH-D PEOPLE,NECB-D-OCCUPANCY,WILD_ST=ELECTRICAL/MECHANICAL ROOM-SCH-D_FL=BUILDING STORY 2_SCH=D,342.00,1.7,1.7,5.002E-003,199.927,0.300,0.700,AutoCalculate,NECB-ACTIVITY,No,3.8200E-008,0,2
 People Internal Gains Nominal, ALL_ST=FOOD PREPARATION AREA_FL=BUILDING STORY 1_SCH=B SPACE FUNCTION FOOD PREPARATION AREA PEOPLE,NECB-B-OCCUPANCY,ALL_ST=FOOD PREPARATION AREA_FL=BUILDING STORY 1_SCH=B,216.00,10.8,10.8,5.002E-002,19.993,0.300,0.700,AutoCalculate,NECB-ACTIVITY,No,3.8200E-008,0,10
 People Internal Gains Nominal, ALL_ST=GYMNASIUM/FITNESS CENTRE PLAYING AREA_FL=BUILDING STORY 1_SCH=B SPACE FUNCTION GYMNASIUM/FITNESS CENTRE PLAYING AREA PEOPLE,NECB-B-OCCUPANCY,ALL_ST=GYMNASIUM/FITNESS CENTRE PLAYING AREA_FL=BUILDING STORY 1_SCH=B,1976.00,395.3,395.3,0.200,4.998,0.300,0.700,AutoCalculate,NECB-ACTIVITY,No,3.8200E-008,0,356
 People Internal Gains Nominal, ALL_ST=GYMNASIUM/FITNESS CENTRE PLAYING AREA_FL=BUILDING STORY 1_SCH=B 1 SPACE FUNCTION GYMNASIUM/FITNESS CENTRE PLAYING AREA PEOPLE,NECB-B-OCCUPANCY,ALL_ST=GYMNASIUM/FITNESS CENTRE PLAYING AREA_FL=BUILDING STORY 1_SCH=B 1,1248.00,249.7,249.7,0.200,4.998,0.300,0.700,AutoCalculate,NECB-ACTIVITY,No,3.8200E-008,0,225
 People Internal Gains Nominal, ALL_ST=LIBRARY READING AREA_FL=BUILDING STORY 2_SCH=C SPACE FUNCTION LIBRARY READING AREA PEOPLE,NECB-C-OCCUPANCY,ALL_ST=LIBRARY READING AREA_FL=BUILDING STORY 2_SCH=C,840.00,42.0,42.0,5.002E-002,19.993,0.300,0.700,AutoCalculate,NECB-ACTIVITY,No,3.8200E-008,0,38
 People Internal Gains Nominal, ALL_ST=LOBBY - OTHER_FL=BUILDING STORY 1_SCH=C SPACE FUNCTION LOBBY - OTHER PEOPLE,NECB-C-OCCUPANCY,ALL_ST=LOBBY - OTHER_FL=BUILDING STORY 1_SCH=C,210.00,21.0,21.0,0.100,9.996,0.300,0.700,AutoCalculate,NECB-ACTIVITY,No,3.8200E-008,0,19
 People Internal Gains Nominal, ALL_ST=LOBBY - OTHER_FL=BUILDING STORY 2_SCH=C SPACE FUNCTION LOBBY - OTHER PEOPLE,NECB-C-OCCUPANCY,ALL_ST=LOBBY - OTHER_FL=BUILDING STORY 2_SCH=C,210.00,21.0,21.0,0.100,9.996,0.300,0.700,AutoCalculate,NECB-ACTIVITY,No,3.8200E-008,0,19
 People Internal Gains Nominal, ALL_ST=OFFICE ENCLOSED <= 25 M2_FL=BUILDING STORY 1_SCH=A SPACE FUNCTION OFFICE ENCLOSED <= 25 M2 PEOPLE,NECB-A-OCCUPANCY,ALL_ST=OFFICE ENCLOSED <= 25 M2_FL=BUILDING STORY 1_SCH=A,532.00,26.6,26.6,5.002E-002,19.993,0.300,0.700,AutoCalculate,NECB-ACTIVITY,No,3.8200E-008,0,24
 People Internal Gains Nominal, ALL_ST=OFFICE ENCLOSED <= 25 M2_FL=BUILDING STORY 2_SCH=A SPACE FUNCTION OFFICE ENCLOSED <= 25 M2 PEOPLE,NECB-A-OCCUPANCY,ALL_ST=OFFICE ENCLOSED <= 25 M2_FL=BUILDING STORY 2_SCH=A,532.00,26.6,26.6,5.002E-002,19.993,0.300,0.700,AutoCalculate,NECB-ACTIVITY,No,3.8200E-008,0,24
 People Internal Gains Nominal, WET_ST=WASHROOM - OTHER-SCH-D_FL=BUILDING STORY 1_SCHD SPACE FUNCTION WASHROOM - OTHER-SCH-D PEOPLE,NECB-D-OCCUPANCY,WET_ST=WASHROOM - OTHER-SCH-D_FL=BUILDING STORY 1_SCHD,210.00,7.0,7.0,3.335E-002,29.989,0.300,0.700,AutoCalculate,NECB-ACTIVITY,No,3.8200E-008,0,6
 People Internal Gains Nominal, WET_ST=WASHROOM - OTHER-SCH-D_FL=BUILDING STORY 2_SCHD SPACE FUNCTION WASHROOM - OTHER-SCH-D PEOPLE,NECB-D-OCCUPANCY,WET_ST=WASHROOM - OTHER-SCH-D_FL=BUILDING STORY 2_SCHD,210.00,7.0,7.0,3.335E-002,29.989,0.300,0.700,AutoCalculate,NECB-ACTIVITY,No,3.8200E-008,0,6
! <Lights Internal Gains Nominal>,Name,Schedule Name,Zone Name,Zone Floor Area {m2},# Zone Occupants,Lighting Level {W},Lights/Floor Area {W/m2},Lights per person {W/person},Fraction Return Air,Fraction Radiant,Fraction Short Wave,Fraction Convected,Fraction Replaceable,End-Use Category,Nominal Minimum Lighting Level {W},Nominal Maximum Lighting Level {W}
 Lights Internal Gains Nominal, ALL_ST=AUDIENCE SEATING AREA PERMANENT - AUDITORIUM_FL=BUILDING STORY 1_SCH=C SPACE FUNCTION AUDIENCE SEATING AREA PERMANENT - AUDITORIUM LIGHTS 85.0 PERCENT REDUCTION,NECB-C-LIGHTING,ALL_ST=AUDIENCE SEATING AREA PERMANENT - AUDITORIUM_FL=BUILDING STORY 1_SCH=C,988.00,197.7,1926.600,1.950,9.746,0.000,0.500,0.200,0.300,1.000,General,96.330,1733.940
 Lights Internal Gains Nominal, ALL_ST=CLASSROOM/LECTURE HALL/TRAINING ROOM OTHER_FL=BUILDING STORY 1_SCH=D SPACE FUNCTION CLASSROOM/LECTURE HALL/TRAINING ROOM OTHER LIGHTS 85.0 PERCENT REDUCTION,NECB-D-OCCUPANCY-NECB-D-LIGHTING-0.5-0.0-0.67-LIGHT RULESET,ALL_ST=CLASSROOM/LECTURE HALL/TRAINING ROOM OTHER_FL=BUILDING STORY 1_SCH=D,297.00,39.6,677.160,2.280,17.094,0.000,0.500,0.200,0.300,1.000,General,22.516,609.444
 Lights Internal Gains Nominal, ALL_ST=CLASSROOM/LECTURE HALL/TRAINING ROOM OTHER_FL=BUILDING STORY 1_SCH=D 1 SPACE FUNCTION CLASSROOM/LECTURE HALL/TRAINING ROOM OTHER LIGHTS 85.0 PERCENT REDUCTION,NECB-D-OCCUPANCY-NECB-D-LIGHTING-0.5-0.0-0.67-LIGHT RULESET,ALL_ST=CLASSROOM/LECTURE HALL/TRAINING ROOM OTHER_FL=BUILDING STORY 1_SCH=D 1,1431.00,190.9,3262.680,2.280,17.094,0.000,0.500,0.200,0.300,1.000,General,108.484,2936.412
 Lights Internal Gains Nominal, ALL_ST=CLASSROOM/LECTURE HALL/TRAINING ROOM OTHER_FL=BUILDING STORY 1_SCH=D 2 SPACE FUNCTION CLASSROOM/LECTURE HALL/TRAINING ROOM OTHER LIGHTS 85.0 PERCENT REDUCTION,NECB-D-OCCUPANCY-NECB-D-LIGHTING-0.5-0.0-0.67-LIGHT RULESET,ALL_ST=CLASSROOM/LECTURE HALL/TRAINING ROOM OTHER_FL=BUILDING STORY 1_SCH=D 2,1431.00,190.9,3262.680,2.280,17.094,0.000,0.500,0.200,0.300,1.000,General,108.484,2936.412
 Lights Internal Gains Nominal, ALL_ST=CLASSROOM/LECTURE HALL/TRAINING ROOM OTHER_FL=BUILDING STORY 1_SCH=D 3 SPACE FUNCTION CLASSROOM/LECTURE HALL/TRAINING ROOM OTHER LIGHTS 85.0 PERCENT REDUCTION,NECB-D-OCCUPANCY-NECB-D-LIGHTING-0.5-0.0-0.67-LIGHT RULESET,ALL_ST=CLASSROOM/LECTURE HALL/TRAINING ROOM OTHER_FL=BUILDING STORY 1_SCH=D 3,297.00,39.6,677.160,2.280,17.094,0.000,0.500,0.200,0.300,1.000,General,22.516,609.444
 Lights Internal Gains Nominal, ALL_ST=CLASSROOM/LECTURE HALL/TRAINING ROOM OTHER_FL=BUILDING STORY 2_SCH=D SPACE FUNCTION CLASSROOM/LECTURE HALL/TRAINING ROOM OTHER LIGHTS 85.0 PERCENT REDUCTION,NECB-D-OCCUPANCY-NECB-D-LIGHTING-0.5-0.0-0.67-LIGHT RULESET,ALL_ST=CLASSROOM/LECTURE HALL/TRAINING ROOM OTHER_FL=BUILDING STORY 2_SCH=D,297.00,39.6,677.160,2.280,17.094,0.000,0.500,0.200,0.300,1.000,General,22.516,609.444
 Lights Internal Gains Nominal, ALL_ST=CLASSROOM/LECTURE HALL/TRAINING ROOM OTHER_FL=BUILDING STORY 2_SCH=D 1 SPACE FUNCTION CLASSROOM/LECTURE HALL/TRAINING ROOM OTHER LIGHTS 85.0 PERCENT REDUCTION,NECB-D-OCCUPANCY-NECB-D-LIGHTING-0.5-0.0-0.67-LIGHT RULESET,ALL_ST=CLASSROOM/LECTURE HALL/TRAINING ROOM OTHER_FL=BUILDING STORY 2_SCH=D 1,1431.00,190.9,3262.680,2.280,17.094,0.000,0.500,0.200,0.300,1.000,General,108.484,2936.412
 Lights Internal Gains Nominal, ALL_ST=CLASSROOM/LECTURE HALL/TRAINING ROOM OTHER_FL=BUILDING STORY 2_SCH=D 2 SPACE FUNCTION CLASSROOM/LECTURE HALL/TRAINING ROOM OTHER LIGHTS 85.0 PERCENT REDUCTION,NECB-D-OCCUPANCY-NECB-D-LIGHTING-0.5-0.0-0.67-LIGHT RULESET,ALL_ST=CLASSROOM/LECTURE HALL/TRAINING ROOM OTHER_FL=BUILDING STORY 2_SCH=D 2,1431.00,190.9,3262.680,2.280,17.094,0.000,0.500,0.200,0.300,1.000,General,108.484,2936.412
 Lights Internal Gains Nominal, ALL_ST=CLASSROOM/LECTURE HALL/TRAINING ROOM OTHER_FL=BUILDING STORY 2_SCH=D 3 SPACE FUNCTION CLASSROOM/LECTURE HALL/TRAINING ROOM OTHER LIGHTS 85.0 PERCENT REDUCTION,NECB-D-OCCUPANCY-NECB-D-LIGHTING-0.5-0.0-0.67-LIGHT RULESET,ALL_ST=CLASSROOM/LECTURE HALL/TRAINING ROOM OTHER_FL=BUILDING STORY 2_SCH=D 3,297.00,39.6,677.160,2.280,17.094,0.000,0.500,0.200,0.300,1.000,General,22.516,609.444
 Lights Internal Gains Nominal, ALL_ST=CONFERENCE/MEETING/MULTI-PURPOSE ROOM_FL=BUILDING STORY 1_SCH=C SPACE FUNCTION CONFERENCE/MEETING/MULTI-PURPOSE ROOM LIGHTS 85.0 PERCENT REDUCTION,NECB-C-OCCUPANCY-NECB-C-LIGHTING-0.5-0.0-0.67-LIGHT RULESET,ALL_ST=CONFERENCE/MEETING/MULTI-PURPOSE ROOM_FL=BUILDING STORY 1_SCH=C,624.00,124.8,393.263,0.630,3.150,0.000,0.500,0.200,0.300,1.000,General,13.076,353.937
 Lights Internal Gains Nominal, WILD_ST=CORRIDOR/TRANSITION AREA OTHER-SCH-D_FL=BUILDING STORY 1_SCH=D SPACE FUNCTION CORRIDOR/TRANSITION AREA OTHER-SCH-D LIGHTS 85.0 PERCENT REDUCTION,NECB-D-LIGHTING,WILD_ST=CORRIDOR/TRANSITION AREA OTHER-SCH-D_FL=BUILDING STORY 1_SCH=D,1140.00,11.4,1504.800,1.320,131.952,0.000,0.500,0.200,0.300,1.000,General,75.240,1354.320
 Lights Internal Gains Nominal, WILD_ST=CORRIDOR/TRANSITION AREA OTHER-SCH-D_FL=BUILDING STORY 1_SCH=D 1 SPACE FUNCTION CORRIDOR/TRANSITION AREA OTHER-SCH-D LIGHTS 85.0 PERCENT REDUCTION,NECB-D-LIGHTING,WILD_ST=CORRIDOR/TRANSITION AREA OTHER-SCH-D_FL=BUILDING STORY 1_SCH=D 1,960.00,9.6,1267.200,1.320,131.952,0.000,0.500,0.200,0.300,1.000,General,63.360,1140.480
 Lights Internal Gains Nominal, WILD_ST=CORRIDOR/TRANSITION AREA OTHER-SCH-D_FL=BUILDING STORY 2_SCH=D SPACE FUNCTION CORRIDOR/TRANSITION AREA OTHER-SCH-D LIGHTS 85.0 PERCENT REDUCTION,NECB-D-LIGHTING,WILD_ST=CORRIDOR/TRANSITION AREA OTHER-SCH-D_FL=BUILDING STORY 2_SCH=D,1140.00,11.4,1504.800,1.320,131.952,0.000,0.500,0.200,0.300,1.000,General,75.240,1354.320
 Lights Internal Gains Nominal, WILD_ST=CORRIDOR/TRANSITION AREA OTHER-SCH-D_FL=BUILDING STORY 2_SCH=D 1 SPACE FUNCTION CORRIDOR/TRANSITION AREA OTHER-SCH-D LIGHTS 85.0 PERCENT REDUCTION,NECB-D-LIGHTING,WILD_ST=CORRIDOR/TRANSITION AREA OTHER-SCH-D_FL=BUILDING STORY 2_SCH=D 1,960.00,9.6,1267.200,1.320,131.952,0.000,0.500,0.200,0.300,1.000,General,63.360,1140.480
 Lights Internal Gains Nominal, WILD_ST=ELECTRICAL/MECHANICAL ROOM-SCH-D_FL=BUILDING STORY 1_SCH=D SPACE FUNCTION ELECTRICAL/MECHANICAL ROOM-SCH-D LIGHTS 85.0 PERCENT REDUCTION,NECB-D-LIGHTING,WILD_ST=ELECTRICAL/MECHANICAL ROOM-SCH-D_FL=BUILDING STORY 1_SCH=D,342.00,1.7,471.960,1.380,275.900,0.000,0.500,0.200,0.300,1.000,General,23.598,424.764
 Lights Internal Gains Nominal, WILD_ST=ELECTRICAL/MECHANICAL ROOM-SCH-D_FL=BUILDING STORY 2_SCH=D SPACE FUNCTION ELECTRICAL/MECHANICAL ROOM-SCH-D LIGHTS 85.0 PERCENT REDUCTION,NECB-D-LIGHTING,WILD_ST=ELECTRICAL/MECHANICAL ROOM-SCH-D_FL=BUILDING STORY 2_SCH=D,342.00,1.7,471.960,1.380,275.900,0.000,0.500,0.200,0.300,1.000,General,23.598,424.764
 Lights Internal Gains Nominal, ALL_ST=FOOD PREPARATION AREA_FL=BUILDING STORY 1_SCH=B SPACE FUNCTION FOOD PREPARATION AREA LIGHTS 85.0 PERCENT REDUCTION,NECB-B-OCCUPANCY-NECB-B-LIGHTING-0.0-0.0-0.67-LIGHT RULESET,ALL_ST=FOOD PREPARATION AREA_FL=BUILDING STORY 1_SCH=B,216.00,10.8,758.160,3.510,70.174,0.000,0.500,0.200,0.300,1.000,General,75.816,682.344
 Lights Internal Gains Nominal, ALL_ST=GYMNASIUM/FITNESS CENTRE PLAYING AREA_FL=BUILDING STORY 1_SCH=B SPACE FUNCTION GYMNASIUM/FITNESS CENTRE PLAYING AREA LIGHTS 85.0 PERCENT REDUCTION,NECB-B-OCCUPANCY-NECB-B-LIGHTING-0.0-0.0-0.67-LIGHT RULESET,ALL_ST=GYMNASIUM/FITNESS CENTRE PLAYING AREA_FL=BUILDING STORY 1_SCH=B,1976.00,395.3,5453.760,2.760,13.795,0.000,0.500,0.200,0.300,1.000,General,545.376,4908.384
 Lights Internal Gains Nominal, ALL_ST=GYMNASIUM/FITNESS CENTRE PLAYING AREA_FL=BUILDING STORY 1_SCH=B 1 SPACE FUNCTION GYMNASIUM/FITNESS CENTRE PLAYING AREA LIGHTS 85.0 PERCENT REDUCTION,NECB-B-OCCUPANCY-NECB-B-LIGHTING-0.0-0.0-0.67-LIGHT RULESET,ALL_ST=GYMNASIUM/FITNESS CENTRE PLAYING AREA_FL=BUILDING STORY 1_SCH=B 1,1248.00,249.7,3444.480,2.760,13.795,0.000,0.500,0.200,0.300,1.000,General,344.448,3100.032
 Lights Internal Gains Nominal, ALL_ST=LIBRARY READING AREA_FL=BUILDING STORY 2_SCH=C SPACE FUNCTION LIBRARY READING AREA LIGHTS 85.0 PERCENT REDUCTION,NECB-C-OCCUPANCY-NECB-C-LIGHTING-0.0-0.0-0.67-LIGHT RULESET,ALL_ST=LIBRARY READING AREA_FL=BUILDING STORY 2_SCH=C,840.00,42.0,2595.600,3.090,61.778,0.000,0.500,0.200,0.300,1.000,General,129.780,2336.040
 Lights Internal Gains Nominal, ALL_ST=LOBBY - OTHER_FL=BUILDING STORY 1_SCH=C SPACE FUNCTION LOBBY - OTHER LIGHTS 85.0 PERCENT REDUCTION,NECB-C-OCCUPANCY-NECB-C-LIGHTING-0.0-0.0-0.67-LIGHT RULESET,ALL_ST=LOBBY - OTHER_FL=BUILDING STORY 1_SCH=C,210.00,21.0,567.000,2.700,26.990,0.000,0.500,0.200,0.300,1.000,General,28.350,510.300
 Lights Internal Gains Nominal, ALL_ST=LOBBY - OTHER_FL=BUILDING STORY 2_SCH=C SPACE FUNCTION LOBBY - OTHER LIGHTS 85.0 PERCENT REDUCTION,NECB-C-OCCUPANCY-NECB-C-LIGHTING-0.0-0.0-0.67-LIGHT RULESET,ALL_ST=LOBBY - OTHER_FL=BUILDING STORY 2_SCH=C,210.00,21.0,567.000,2.700,26.990,0.000,0.500,0.200,0.300,1.000,General,28.350,510.300
 Lights Internal Gains Nominal, ALL_ST=OFFICE ENCLOSED <= 25 M2_FL=BUILDING STORY 1_SCH=A SPACE FUNCTION OFFICE ENCLOSED <= 25 M2 LIGHTS 85.0 PERCENT REDUCTION,NECB-A-OCCUPANCY-NECB-A-LIGHTING-0.3-0.1-0.67-LIGHT RULESET,ALL_ST=OFFICE ENCLOSED <= 25 M2_FL=BUILDING STORY 1_SCH=A,532.00,26.6,1276.800,2.400,47.983,0.000,0.500,0.200,0.300,1.000,General,44.624,1149.120
 Lights Internal Gains Nominal, ALL_ST=OFFICE ENCLOSED <= 25 M2_FL=BUILDING STORY 2_SCH=A SPACE FUNCTION OFFICE ENCLOSED <= 25 M2 LIGHTS 85.0 PERCENT REDUCTION,NECB-A-OCCUPANCY-NECB-A-LIGHTING-0.3-0.1-0.67-LIGHT RULESET,ALL_ST=OFFICE ENCLOSED <= 25 M2_FL=BUILDING STORY 2_SCH=A,532.00,26.6,1276.800,2.400,47.983,0.000,0.500,0.200,0.300,1.000,General,44.624,1149.120
 Lights Internal Gains Nominal, WET_ST=WASHROOM - OTHER-SCH-D_FL=BUILDING STORY 1_SCHD SPACE FUNCTION WASHROOM - OTHER-SCH-D LIGHTS 85.0 PERCENT REDUCTION,NECB-D-OCCUPANCY-NECB-D-LIGHTING-0.5-0.0-0.67-LIGHT RULESET,WET_ST=WASHROOM - OTHER-SCH-D_FL=BUILDING STORY 1_SCHD,210.00,7.0,428.400,2.040,61.178,0.000,0.500,0.200,0.300,1.000,General,14.244,385.560
 Lights Internal Gains Nominal, WET_ST=WASHROOM - OTHER-SCH-D_FL=BUILDING STORY 2_SCHD SPACE FUNCTION WASHROOM - OTHER-SCH-D LIGHTS 85.0 PERCENT REDUCTION,NECB-D-OCCUPANCY-NECB-D-LIGHTING-0.5-0.0-0.67-LIGHT RULESET,WET_ST=WASHROOM - OTHER-SCH-D_FL=BUILDING STORY 2_SCHD,210.00,7.0,428.400,2.040,61.178,0.000,0.500,0.200,0.300,1.000,General,14.244,385.560
! <ElectricEquipment Internal Gains Nominal>,Name,Schedule Name,Zone Name,Zone Floor Area {m2},# Zone Occupants,Equipment Level {W},Equipment/Floor Area {W/m2},Equipment per person {W/person},Fraction Latent,Fraction Radiant,Fraction Lost,Fraction Convected,End-Use SubCategory,Nominal Minimum Equipment Level {W},Nominal Maximum Equipment Level {W}
 ElectricEquipment Internal Gains Nominal, ALL_ST=AUDIENCE SEATING AREA PERMANENT - AUDITORIUM_FL=BUILDING STORY 1_SCH=C SPACE FUNCTION AUDIENCE SEATING AREA PERMANENT - AUDITORIUM ELEC EQUIP 50.0 PERCENT REDUCTION,NECB-C-ELECTRIC-EQUIPMENT,ALL_ST=AUDIENCE SEATING AREA PERMANENT - AUDITORIUM_FL=BUILDING STORY 1_SCH=C,988.00,197.7,1235.449,1.250,6.250,0.000,0.500,0.000,0.500,General,61.772,1111.904
 ElectricEquipment Internal Gains Nominal, ALL_ST=CLASSROOM/LECTURE HALL/TRAINING ROOM OTHER_FL=BUILDING STORY 1_SCH=D SPACE FUNCTION CLASSROOM/LECTURE HALL/TRAINING ROOM OTHER ELEC EQUIP 50.0 PERCENT REDUCTION,NECB-D-ELECTRIC-EQUIPMENT,ALL_ST=CLASSROOM/LECTURE HALL/TRAINING ROOM OTHER_FL=BUILDING STORY 1_SCH=D,297.00,39.6,742.770,2.501,18.750,0.000,0.500,0.000,0.500,General,37.138,668.493
 ElectricEquipment Internal Gains Nominal, ALL_ST=CLASSROOM/LECTURE HALL/TRAINING ROOM OTHER_FL=BUILDING STORY 1_SCH=D 1 SPACE FUNCTION CLASSROOM/LECTURE HALL/TRAINING ROOM OTHER ELEC EQUIP 50.0 PERCENT REDUCTION,NECB-D-ELECTRIC-EQUIPMENT,ALL_ST=CLASSROOM/LECTURE HALL/TRAINING ROOM OTHER_FL=BUILDING STORY 1_SCH=D 1,1431.00,190.9,3578.800,2.501,18.750,0.000,0.500,0.000,0.500,General,178.940,3220.920
 ElectricEquipment Internal Gains Nominal, ALL_ST=CLASSROOM/LECTURE HALL/TRAINING ROOM OTHER_FL=BUILDING STORY 1_SCH=D 2 SPACE FUNCTION CLASSROOM/LECTURE HALL/TRAINING ROOM OTHER ELEC EQUIP 50.0 PERCENT REDUCTION,NECB-D-ELECTRIC-EQUIPMENT,ALL_ST=CLASSROOM/LECTURE HALL/TRAINING ROOM OTHER_FL=BUILDING STORY 1_SCH=D 2,1431.00,190.9,3578.800,2.501,18.750,0.000,0.500,0.000,0.500,General,178.940,3220.920
 ElectricEquipment Internal Gains Nominal, ALL_ST=CLASSROOM/LECTURE HALL/TRAINING ROOM OTHER_FL=BUILDING STORY 1_SCH=D 3 SPACE FUNCTION CLASSROOM/LECTURE HALL/TRAINING ROOM OTHER ELEC EQUIP 50.0 PERCENT REDUCTION,NECB-D-ELECTRIC-EQUIPMENT,ALL_ST=CLASSROOM/LECTURE HALL/TRAINING ROOM OTHER_FL=BUILDING STORY 1_SCH=D 3,297.00,39.6,742.770,2.501,18.750,0.000,0.500,0.000,0.500,General,37.138,668.493
 ElectricEquipment Internal Gains Nominal, ALL_ST=CLASSROOM/LECTURE HALL/TRAINING ROOM OTHER_FL=BUILDING STORY 2_SCH=D SPACE FUNCTION CLASSROOM/LECTURE HALL/TRAINING ROOM OTHER ELEC EQUIP 50.0 PERCENT REDUCTION,NECB-D-ELECTRIC-EQUIPMENT,ALL_ST=CLASSROOM/LECTURE HALL/TRAINING ROOM OTHER_FL=BUILDING STORY 2_SCH=D,297.00,39.6,742.770,2.501,18.750,0.000,0.500,0.000,0.500,General,37.138,668.493
 ElectricEquipment Internal Gains Nominal, ALL_ST=CLASSROOM/LECTURE HALL/TRAINING ROOM OTHER_FL=BUILDING STORY 2_SCH=D 1 SPACE FUNCTION CLASSROOM/LECTURE HALL/TRAINING ROOM OTHER ELEC EQUIP 50.0 PERCENT REDUCTION,NECB-D-ELECTRIC-EQUIPMENT,ALL_ST=CLASSROOM/LECTURE HALL/TRAINING ROOM OTHER_FL=BUILDING STORY 2_SCH=D 1,1431.00,190.9,3578.800,2.501,18.750,0.000,0.500,0.000,0.500,General,178.940,3220.920
 ElectricEquipment Internal Gains Nominal, ALL_ST=CLASSROOM/LECTURE HALL/TRAINING ROOM OTHER_FL=BUILDING STORY 2_SCH=D 2 SPACE FUNCTION CLASSROOM/LECTURE HALL/TRAINING ROOM OTHER ELEC EQUIP 50.0 PERCENT REDUCTION,NECB-D-ELECTRIC-EQUIPMENT,ALL_ST=CLASSROOM/LECTURE HALL/TRAINING ROOM OTHER_FL=BUILDING STORY 2_SCH=D 2,1431.00,190.9,3578.800,2.501,18.750,0.000,0.500,0.000,0.500,General,178.940,3220.920
 ElectricEquipment Internal Gains Nominal, ALL_ST=CLASSROOM/LECTURE HALL/TRAINING ROOM OTHER_FL=BUILDING STORY 2_SCH=D 3 SPACE FUNCTION CLASSROOM/LECTURE HALL/TRAINING ROOM OTHER ELEC EQUIP 50.0 PERCENT REDUCTION,NECB-D-ELECTRIC-EQUIPMENT,ALL_ST=CLASSROOM/LECTURE HALL/TRAINING ROOM OTHER_FL=BUILDING STORY 2_SCH=D 3,297.00,39.6,742.770,2.501,18.750,0.000,0.500,0.000,0.500,General,37.138,668.493
 ElectricEquipment Internal Gains Nominal, ALL_ST=CONFERENCE/MEETING/MULTI-PURPOSE ROOM_FL=BUILDING STORY 1_SCH=C SPACE FUNCTION CONFERENCE/MEETING/MULTI-PURPOSE ROOM ELEC EQUIP 50.0 PERCENT REDUCTION,NECB-C-ELECTRIC-EQUIPMENT,ALL_ST=CONFERENCE/MEETING/MULTI-PURPOSE ROOM_FL=BUILDING STORY 1_SCH=C,624.00,124.8,312.113,0.500,2.500,0.000,0.500,0.000,0.500,General,15.606,280.902
 ElectricEquipment Internal Gains Nominal, WILD_ST=ELECTRICAL/MECHANICAL ROOM-SCH-D_FL=BUILDING STORY 1_SCH=D SPACE FUNCTION ELECTRICAL/MECHANICAL ROOM-SCH-D ELEC EQUIP 50.0 PERCENT REDUCTION,NECB-D-ELECTRIC-EQUIPMENT,WILD_ST=ELECTRICAL/MECHANICAL ROOM-SCH-D_FL=BUILDING STORY 1_SCH=D,342.00,1.7,171.062,0.500,100.000,0.000,0.500,0.000,0.500,General,8.553,153.956
 ElectricEquipment Internal Gains Nominal, WILD_ST=ELECTRICAL/MECHANICAL ROOM-SCH-D_FL=BUILDING STORY 2_SCH=D SPACE FUNCTION ELECTRICAL/MECHANICAL ROOM-SCH-D ELEC EQUIP 50.0 PERCENT REDUCTION,NECB-D-ELECTRIC-EQUIPMENT,WILD_ST=ELECTRICAL/MECHANICAL ROOM-SCH-D_FL=BUILDING STORY 2_SCH=D,342.00,1.7,171.062,0.500,100.000,0.000,0.500,0.000,0.500,General,8.553,153.956
 ElectricEquipment Internal Gains Nominal, ALL_ST=FOOD PREPARATION AREA_FL=BUILDING STORY 1_SCH=B SPACE FUNCTION FOOD PREPARATION AREA ELEC EQUIP 50.0 PERCENT REDUCTION,NECB-B-ELECTRIC-EQUIPMENT,ALL_ST=FOOD PREPARATION AREA_FL=BUILDING STORY 1_SCH=B,216.00,10.8,1080.392,5.002,100.000,0.000,0.500,0.000,0.500,General,108.039,972.353
 ElectricEquipment Internal Gains Nominal, ALL_ST=GYMNASIUM/FITNESS CENTRE PLAYING AREA_FL=BUILDING STORY 1_SCH=B SPACE FUNCTION GYMNASIUM/FITNESS CENTRE PLAYING AREA ELEC EQUIP 50.0 PERCENT REDUCTION,NECB-B-ELECTRIC-EQUIPMENT,ALL_ST=GYMNASIUM/FITNESS CENTRE PLAYING AREA_FL=BUILDING STORY 1_SCH=B,1976.00,395.3,1482.539,0.750,3.750,0.000,0.500,0.000,0.500,General,148.254,1334.285
 ElectricEquipment Internal Gains Nominal, ALL_ST=GYMNASIUM/FITNESS CENTRE PLAYING AREA_FL=BUILDING STORY 1_SCH=B 1 SPACE FUNCTION GYMNASIUM/FITNESS CENTRE PLAYING AREA ELEC EQUIP 50.0 PERCENT REDUCTION,NECB-B-ELECTRIC-EQUIPMENT,ALL_ST=GYMNASIUM/FITNESS CENTRE PLAYING AREA_FL=BUILDING STORY 1_SCH=B 1,1248.00,249.7,936.340,0.750,3.750,0.000,0.500,0.000,0.500,General,93.634,842.706
 ElectricEquipment Internal Gains Nominal, ALL_ST=LIBRARY READING AREA_FL=BUILDING STORY 2_SCH=C SPACE FUNCTION LIBRARY READING AREA ELEC EQUIP 50.0 PERCENT REDUCTION,NECB-C-ELECTRIC-EQUIPMENT,ALL_ST=LIBRARY READING AREA_FL=BUILDING STORY 2_SCH=C,840.00,42.0,420.153,0.500,10.000,0.000,0.500,0.000,0.500,General,21.008,378.137
 ElectricEquipment Internal Gains Nominal, ALL_ST=LOBBY - OTHER_FL=BUILDING STORY 1_SCH=C SPACE FUNCTION LOBBY - OTHER ELEC EQUIP 50.0 PERCENT REDUCTION,NECB-C-ELECTRIC-EQUIPMENT,ALL_ST=LOBBY - OTHER_FL=BUILDING STORY 1_SCH=C,210.00,21.0,105.038,0.500,5.000,0.000,0.500,0.000,0.500,General,5.252,94.534
 ElectricEquipment Internal Gains Nominal, ALL_ST=LOBBY - OTHER_FL=BUILDING STORY 2_SCH=C SPACE FUNCTION LOBBY - OTHER ELEC EQUIP 50.0 PERCENT REDUCTION,NECB-C-ELECTRIC-EQUIPMENT,ALL_ST=LOBBY - OTHER_FL=BUILDING STORY 2_SCH=C,210.00,21.0,105.038,0.500,5.000,0.000,0.500,0.000,0.500,General,5.252,94.534
 ElectricEquipment Internal Gains Nominal, ALL_ST=OFFICE ENCLOSED <= 25 M2_FL=BUILDING STORY 1_SCH=A SPACE FUNCTION OFFICE ENCLOSED <= 25 M2 ELEC EQUIP 50.0 PERCENT REDUCTION,NECB-A-ELECTRIC-EQUIPMENT,ALL_ST=OFFICE ENCLOSED <= 25 M2_FL=BUILDING STORY 1_SCH=A,532.00,26.6,1995.725,3.751,75.000,0.000,0.500,0.000,0.500,General,399.145,1796.153
 ElectricEquipment Internal Gains Nominal, ALL_ST=OFFICE ENCLOSED <= 25 M2_FL=BUILDING STORY 2_SCH=A SPACE FUNCTION OFFICE ENCLOSED <= 25 M2 ELEC EQUIP 50.0 PERCENT REDUCTION,NECB-A-ELECTRIC-EQUIPMENT,ALL_ST=OFFICE ENCLOSED <= 25 M2_FL=BUILDING STORY 2_SCH=A,532.00,26.6,1995.725,3.751,75.000,0.000,0.500,0.000,0.500,General,399.145,1796.153
 ElectricEquipment Internal Gains Nominal, WET_ST=WASHROOM - OTHER-SCH-D_FL=BUILDING STORY 1_SCHD SPACE FUNCTION WASHROOM - OTHER-SCH-D ELEC EQUIP 50.0 PERCENT REDUCTION,NECB-D-ELECTRIC-EQUIPMENT,WET_ST=WASHROOM - OTHER-SCH-D_FL=BUILDING STORY 1_SCHD,210.00,7.0,105.038,0.500,15.000,0.000,0.500,0.000,0.500,General,5.252,94.534
 ElectricEquipment Internal Gains Nominal, WET_ST=WASHROOM - OTHER-SCH-D_FL=BUILDING STORY 2_SCHD SPACE FUNCTION WASHROOM - OTHER-SCH-D ELEC EQUIP 50.0 PERCENT REDUCTION,NECB-D-ELECTRIC-EQUIPMENT,WET_ST=WASHROOM - OTHER-SCH-D_FL=BUILDING STORY 2_SCHD,210.00,7.0,105.038,0.500,15.000,0.000,0.500,0.000,0.500,General,5.252,94.534
! <Shadowing/Sun Position Calculations Annual Simulations>, Calculation Method, Value {days}, Allowable Number Figures in Shadow Overlap {}, Polygon Clipping Algorithm, Sky Diffuse Modeling Algorithm, External Shading Calculation Method, Output External Shading Calculation Results, Disable Self-Shading Within Shading Zone Groups, Disable Self-Shading From Shading Zone Groups to Other Zones
Shadowing/Sun Position Calculations Annual Simulations,AverageOverDaysInFrequency,30,15000,SutherlandHodgman,SimpleSkyDiffuseModeling,InternalCalculation,No,No,No
! <Water Heater Information>,Type,Name,Volume {m3},Maximum Capacity {W},Standard Rated Recovery Efficiency, Standard Rated Energy Factor
! <Heat Pump Water Heater Information>,Type,Name,Volume {m3},Maximum Capacity {W},Standard Rated Recovery Efficiency,Standard Rated Energy Factor,"DX Coil Total Cooling Rate {W, HPWH Only}"
! <ZoneInfiltration Airflow Stats Nominal>,Name,Schedule Name,Zone Name, Zone Floor Area {m2}, # Zone Occupants,Design Volume Flow Rate {m3/s},Volume Flow Rate/Floor Area {m3/s/m2},Volume Flow Rate/Exterior Surface Area {m3/s/m2},ACH - Air Changes per Hour,Equation A - Constant Term Coefficient {},Equation B - Temperature Term Coefficient {1/C},Equation C - Velocity Term Coefficient {s/m}, Equation D - Velocity Squared Term Coefficient {s2/m2}
 ZoneInfiltration Airflow Stats Nominal, AUDITORIUM_ZN_1_FLR_1 INFILTRATION,ALWAYS ON DISCRETE,ALL_ST=AUDIENCE SEATING AREA PERMANENT - AUDITORIUM_FL=BUILDING STORY 1_SCH=C,988.00,197.7,4.463E-002,4.517E-005,3.454E-005,2.033E-002,0.000,0.000,0.224,0.000
 ZoneInfiltration Airflow Stats Nominal, CORNER_CLASS_1_POD_1_ZN_1_FLR_1 INFILTRATION,ALWAYS ON DISCRETE,ALL_ST=CLASSROOM/LECTURE HALL/TRAINING ROOM OTHER_FL=BUILDING STORY 1_SCH=D,297.00,39.6,2.764E-003,9.305E-006,1.151E-005,8.374E-003,0.000,0.000,0.224,0.000
 ZoneInfiltration Airflow Stats Nominal, CORNER_CLASS_1_POD_2_ZN_1_FLR_1 INFILTRATION,ALWAYS ON DISCRETE,ALL_ST=CLASSROOM/LECTURE HALL/TRAINING ROOM OTHER_FL=BUILDING STORY 1_SCH=D,297.00,39.6,2.764E-003,9.305E-006,1.151E-005,8.374E-003,0.000,0.000,0.224,0.000
 ZoneInfiltration Airflow Stats Nominal, CORNER_CLASS_1_POD_3_ZN_1_FLR_1 INFILTRATION,ALWAYS ON DISCRETE,ALL_ST=CLASSROOM/LECTURE HALL/TRAINING ROOM OTHER_FL=BUILDING STORY 1_SCH=D,297.00,39.6,2.764E-003,9.305E-006,1.151E-005,8.374E-003,0.000,0.000,0.224,0.000
 ZoneInfiltration Airflow Stats Nominal, MULT_CLASS_2_POD_1_ZN_1_FLR_1 INFILTRATION,ALWAYS ON DISCRETE,ALL_ST=CLASSROOM/LECTURE HALL/TRAINING ROOM OTHER_FL=BUILDING STORY 1_SCH=D 1,1431.00,190.9,7.323E-003,5.118E-006,1.151E-005,4.606E-003,0.000,0.000,0.224,0.000
 ZoneInfiltration Airflow Stats Nominal, MULT_CLASS_2_POD_2_ZN_1_FLR_1 INFILTRATION,ALWAYS ON DISCRETE,ALL_ST=CLASSROOM/LECTURE HALL/TRAINING ROOM OTHER_FL=BUILDING STORY 1_SCH=D 1,1431.00,190.9,7.323E-003,5.118E-006,1.151E-005,4.606E-003,0.000,0.000,0.224,0.000
 ZoneInfiltration Airflow Stats Nominal, MULT_CLASS_2_POD_3_ZN_1_FLR_1 INFILTRATION,ALWAYS ON DISCRETE,ALL_ST=CLASSROOM/LECTURE HALL/TRAINING ROOM OTHER_FL=BUILDING STORY 1_SCH=D 1,1431.00,190.9,7.323E-003,5.118E-006,1.151E-005,4.606E-003,0.000,0.000,0.224,0.000
 ZoneInfiltration Airflow Stats Nominal, MULT_CLASS_1_POD_1_ZN_1_FLR_1 INFILTRATION,ALWAYS ON DISCRETE,ALL_ST=CLASSROOM/LECTURE HALL/TRAINING ROOM OTHER_FL=BUILDING STORY 1_SCH=D 2,1431.00,190.9,7.323E-003,5.118E-006,1.151E-005,4.606E-003,0.000,0.000,0.224,0.000
 ZoneInfiltration Airflow Stats Nominal, MULT_CLASS_1_POD_2_ZN_1_FLR_1 INFILTRATION,ALWAYS ON DISCRETE,ALL_ST=CLASSROOM/LECTURE HALL/TRAINING ROOM OTHER_FL=BUILDING STORY 1_SCH=D 2,1431.00,190.9,7.323E-003,5.118E-006,1.151E-005,4.606E-003,0.000,0.000,0.224,0.000
 ZoneInfiltration Airflow Stats Nominal, MULT_CLASS_1_POD_3_ZN_1_FLR_1 INFILTRATION,ALWAYS ON DISCRETE,ALL_ST=CLASSROOM/LECTURE HALL/TRAINING ROOM OTHER_FL=BUILDING STORY 1_SCH=D 2,1431.00,190.9,7.323E-003,5.118E-006,1.151E-005,4.606E-003,0.000,0.000,0.224,0.000
 ZoneInfiltration Airflow Stats Nominal, CORNER_CLASS_2_POD_1_ZN_1_FLR_1 INFILTRATION,ALWAYS ON DISCRETE,ALL_ST=CLASSROOM/LECTURE HALL/TRAINING ROOM OTHER_FL=BUILDING STORY 1_SCH=D 3,297.00,39.6,2.764E-003,9.305E-006,1.151E-005,8.374E-003,0.000,0.000,0.224,0.000
 ZoneInfiltration Airflow Stats Nominal, CORNER_CLASS_2_POD_2_ZN_1_FLR_1 INFILTRATION,ALWAYS ON DISCRETE,ALL_ST=CLASSROOM/LECTURE HALL/TRAINING ROOM OTHER_FL=BUILDING STORY 1_SCH=D 3,297.00,39.6,2.764E-003,9.305E-006,1.151E-005,8.374E-003,0.000,0.000,0.224,0.000
 ZoneInfiltration Airflow Stats Nominal, CORNER_CLASS_2_POD_3_ZN_1_FLR_1 INFILTRATION,ALWAYS ON DISCRETE,ALL_ST=CLASSROOM/LECTURE HALL/TRAINING ROOM OTHER_FL=BUILDING STORY 1_SCH=D 3,297.00,39.6,2.764E-003,9.305E-006,1.151E-005,8.374E-003,0.000,0.000,0.224,0.000
 ZoneInfiltration Airflow Stats Nominal, CORNER_CLASS_2_POD_1_ZN_1_FLR_2 INFILTRATION,ALWAYS ON DISCRETE,ALL_ST=CLASSROOM/LECTURE HALL/TRAINING ROOM OTHER_FL=BUILDING STORY 2_SCH=D,297.00,39.6,6.183E-003,2.082E-005,1.151E-005,1.874E-002,0.000,0.000,0.224,0.000
 ZoneInfiltration Airflow Stats Nominal, CORNER_CLASS_2_POD_2_ZN_1_FLR_2 INFILTRATION,ALWAYS ON DISCRETE,ALL_ST=CLASSROOM/LECTURE HALL/TRAINING ROOM OTHER_FL=BUILDING STORY 2_SCH=D,297.00,39.6,6.183E-003,2.082E-005,1.151E-005,1.874E-002,0.000,0.000,0.224,0.000
 ZoneInfiltration Airflow Stats Nominal, CORNER_CLASS_2_POD_3_ZN_1_FLR_2 INFILTRATION,ALWAYS ON DISCRETE,ALL_ST=CLASSROOM/LECTURE HALL/TRAINING ROOM OTHER_FL=BUILDING STORY 2_SCH=D,297.00,39.6,6.183E-003,2.082E-005,1.151E-005,1.874E-002,0.000,0.000,0.224,0.000
 ZoneInfiltration Airflow Stats Nominal, MULT_CLASS_1_POD_1_ZN_1_FLR_2 INFILTRATION,ALWAYS ON DISCRETE,ALL_ST=CLASSROOM/LECTURE HALL/TRAINING ROOM OTHER_FL=BUILDING STORY 2_SCH=D 1,1431.00,190.9,2.380E-002,1.663E-005,1.151E-005,1.497E-002,0.000,0.000,0.224,0.000
 ZoneInfiltration Airflow Stats Nominal, MULT_CLASS_1_POD_2_ZN_1_FLR_2 INFILTRATION,ALWAYS ON DISCRETE,ALL_ST=CLASSROOM/LECTURE HALL/TRAINING ROOM OTHER_FL=BUILDING STORY 2_SCH=D 1,1431.00,190.9,2.380E-002,1.663E-005,1.151E-005,1.497E-002,0.000,0.000,0.224,0.000
 ZoneInfiltration Airflow Stats Nominal, MULT_CLASS_1_POD_3_ZN_1_FLR_2 INFILTRATION,ALWAYS ON DISCRETE,ALL_ST=CLASSROOM/LECTURE HALL/TRAINING ROOM OTHER_FL=BUILDING STORY 2_SCH=D 1,1431.00,190.9,2.380E-002,1.663E-005,1.151E-005,1.497E-002,0.000,0.000,0.224,0.000
 ZoneInfiltration Airflow Stats Nominal, MULT_CLASS_2_POD_1_ZN_1_FLR_2 INFILTRATION,ALWAYS ON DISCRETE,ALL_ST=CLASSROOM/LECTURE HALL/TRAINING ROOM OTHER_FL=BUILDING STORY 2_SCH=D 2,1431.00,190.9,2.380E-002,1.663E-005,1.151E-005,1.497E-002,0.000,0.000,0.224,0.000
 ZoneInfiltration Airflow Stats Nominal, MULT_CLASS_2_POD_2_ZN_1_FLR_2 INFILTRATION,ALWAYS ON DISCRETE,ALL_ST=CLASSROOM/LECTURE HALL/TRAINING ROOM OTHER_FL=BUILDING STORY 2_SCH=D 2,1431.00,190.9,2.380E-002,1.663E-005,1.151E-005,1.497E-002,0.000,0.000,0.224,0.000
 ZoneInfiltration Airflow Stats Nominal, MULT_CLASS_2_POD_3_ZN_1_FLR_2 INFILTRATION,ALWAYS ON DISCRETE,ALL_ST=CLASSROOM/LECTURE HALL/TRAINING ROOM OTHER_FL=BUILDING STORY 2_SCH=D 2,1431.00,190.9,2.380E-002,1.663E-005,1.151E-005,1.497E-002,0.000,0.000,0.224,0.000
 ZoneInfiltration Airflow Stats Nominal, CORNER_CLASS_1_POD_1_ZN_1_FLR_2 INFILTRATION,ALWAYS ON DISCRETE,ALL_ST=CLASSROOM/LECTURE HALL/TRAINING ROOM OTHER_FL=BUILDING STORY 2_SCH=D 3,297.00,39.6,6.183E-003,2.082E-005,1.151E-005,1.874E-002,0.000,0.000,0.224,0.000
 ZoneInfiltration Airflow Stats Nominal, CORNER_CLASS_1_POD_2_ZN_1_FLR_2 INFILTRATION,ALWAYS ON DISCRETE,ALL_ST=CLASSROOM/LECTURE HALL/TRAINING ROOM OTHER_FL=BUILDING STORY 2_SCH=D 3,297.00,39.6,6.183E-003,2.082E-005,1.151E-005,1.874E-002,0.000,0.000,0.224,0.000
 ZoneInfiltration Airflow Stats Nominal, CORNER_CLASS_1_POD_3_ZN_1_FLR_2 INFILTRATION,ALWAYS ON DISCRETE,ALL_ST=CLASSROOM/LECTURE HALL/TRAINING ROOM OTHER_FL=BUILDING STORY 2_SCH=D 3,297.00,39.6,6.183E-003,2.082E-005,1.151E-005,1.874E-002,0.000,0.000,0.224,0.000
 ZoneInfiltration Airflow Stats Nominal, CAFETERIA_ZN_1_FLR_1 INFILTRATION,ALWAYS ON DISCRETE,ALL_ST=CONFERENCE/MEETING/MULTI-PURPOSE ROOM_FL=BUILDING STORY 1_SCH=C,624.00,124.8,6.909E-003,1.107E-005,3.454E-005,9.965E-003,0.000,0.000,0.224,0.000
 ZoneInfiltration Airflow Stats Nominal, KITCHEN_ZN_1_FLR_1 INFILTRATION,ALWAYS ON DISCRETE,ALL_ST=FOOD PREPARATION AREA_FL=BUILDING STORY 1_SCH=B,216.00,10.8,1.244E-003,5.757E-006,3.454E-005,5.182E-003,0.000,0.000,0.224,0.000
 ZoneInfiltration Airflow Stats Nominal, GYM_ZN_1_FLR_1 INFILTRATION,ALWAYS ON DISCRETE,ALL_ST=GYMNASIUM/FITNESS CENTRE PLAYING AREA_FL=BUILDING STORY 1_SCH=B,1976.00,395.3,6.826E-002,3.454E-005,3.454E-005,1.554E-002,0.000,0.000,0.224,0.000
 ZoneInfiltration Airflow Stats Nominal, AUX_GYM_ZN_1_FLR_1 INFILTRATION,ALWAYS ON DISCRETE,ALL_ST=GYMNASIUM/FITNESS CENTRE PLAYING AREA_FL=BUILDING STORY 1_SCH=B 1,1248.00,249.7,6.411E-002,5.137E-005,3.454E-005,2.312E-002,0.000,0.000,0.224,0.000
 ZoneInfiltration Airflow Stats Nominal, LIBRARY_MEDIA_CENTER_ZN_1_FLR_2 INFILTRATION,ALWAYS ON DISCRETE,ALL_ST=LIBRARY READING AREA_FL=BUILDING STORY 2_SCH=C,840.00,42.0,3.717E-002,4.425E-005,3.454E-005,3.982E-002,0.000,0.000,0.224,0.000
 ZoneInfiltration Airflow Stats Nominal, LOBBY_ZN_1_FLR_1 INFILTRATION,ALWAYS ON DISCRETE,ALL_ST=LOBBY - OTHER_FL=BUILDING STORY 1_SCH=C,210.00,21.0,2.073E-003,9.870E-006,3.454E-005,8.883E-003,0.000,0.000,0.224,0.000
 ZoneInfiltration Airflow Stats Nominal, LOBBY_ZN_1_FLR_2 INFILTRATION,ALWAYS ON DISCRETE,ALL_ST=LOBBY - OTHER_FL=BUILDING STORY 2_SCH=C,210.00,21.0,9.327E-003,4.441E-005,3.454E-005,3.997E-002,0.000,0.000,0.224,0.000
 ZoneInfiltration Airflow Stats Nominal, OFFICES_ZN_1_FLR_1 INFILTRATION,ALWAYS ON DISCRETE,ALL_ST=OFFICE ENCLOSED <= 25 M2_FL=BUILDING STORY 1_SCH=A,532.00,26.6,7.185E-003,1.351E-005,3.454E-005,1.216E-002,0.000,0.000,0.224,0.000
 ZoneInfiltration Airflow Stats Nominal, OFFICES_ZN_1_FLR_2 INFILTRATION,ALWAYS ON DISCRETE,ALL_ST=OFFICE ENCLOSED <= 25 M2_FL=BUILDING STORY 2_SCH=A,532.00,26.6,2.556E-002,4.805E-005,3.454E-005,4.324E-002,0.000,0.000,0.224,0.000
 ZoneInfiltration Airflow Stats Nominal, BATHROOMS_ZN_1_FLR_1 INFILTRATION,ALWAYS ON DISCRETE,WET_ST=WASHROOM - OTHER-SCH-D_FL=BUILDING STORY 1_SCHD,210.00,7.0,2.487E-003,1.184E-005,3.454E-005,1.066E-002,0.000,0.000,0.224,0.000
 ZoneInfiltration Airflow Stats Nominal, BATHROOMS_ZN_1_FLR_2 INFILTRATION,ALWAYS ON DISCRETE,WET_ST=WASHROOM - OTHER-SCH-D_FL=BUILDING STORY 2_SCHD,210.00,7.0,9.741E-003,4.639E-005,3.454E-005,4.175E-002,0.000,0.000,0.224,0.000
 ZoneInfiltration Airflow Stats Nominal, MAIN_CORRIDOR_ZN_1_FLR_1 INFILTRATION,ALWAYS ON DISCRETE,WILD_ST=CORRIDOR/TRANSITION AREA OTHER-SCH-D_FL=BUILDING STORY 1_SCH=D,1140.00,11.4,4.836E-003,4.242E-006,3.454E-005,3.818E-003,0.000,0.000,0.224,0.000
 ZoneInfiltration Airflow Stats Nominal, CORRIDOR_POD_1_ZN_1_FLR_1 INFILTRATION,ALWAYS ON DISCRETE,WILD_ST=CORRIDOR/TRANSITION AREA OTHER-SCH-D_FL=BUILDING STORY 1_SCH=D 1,960.00,9.6,6.909E-004,7.197E-007,1.151E-005,6.477E-004,0.000,0.000,0.224,0.000
 ZoneInfiltration Airflow Stats Nominal, CORRIDOR_POD_2_ZN_1_FLR_1 INFILTRATION,ALWAYS ON DISCRETE,WILD_ST=CORRIDOR/TRANSITION AREA OTHER-SCH-D_FL=BUILDING STORY 1_SCH=D 1,960.00,9.6,6.909E-004,7.197E-007,1.151E-005,6.477E-004,0.000,0.000,0.224,0.000
 ZoneInfiltration Airflow Stats Nominal, CORRIDOR_POD_3_ZN_1_FLR_1 INFILTRATION,ALWAYS ON DISCRETE,WILD_ST=CORRIDOR/TRANSITION AREA OTHER-SCH-D_FL=BUILDING STORY 1_SCH=D 1,960.00,9.6,6.909E-004,7.197E-007,1.151E-005,6.477E-004,0.000,0.000,0.224,0.000
 ZoneInfiltration Airflow Stats Nominal, MAIN_CORRIDOR_ZN_1_FLR_2 INFILTRATION,ALWAYS ON DISCRETE,WILD_ST=CORRIDOR/TRANSITION AREA OTHER-SCH-D_FL=BUILDING STORY 2_SCH=D,1140.00,11.4,4.422E-002,3.879E-005,3.454E-005,3.491E-002,0.000,0.000,0.224,0.000
 ZoneInfiltration Airflow Stats Nominal, CORRIDOR_POD_1_ZN_1_FLR_2 INFILTRATION,ALWAYS ON DISCRETE,WILD_ST=CORRIDOR/TRANSITION AREA OTHER-SCH-D_FL=BUILDING STORY 2_SCH=D 1,960.00,9.6,1.174E-002,1.223E-005,1.151E-005,1.101E-002,0.000,0.000,0.224,0.000
 ZoneInfiltration Airflow Stats Nominal, CORRIDOR_POD_2_ZN_1_FLR_2 INFILTRATION,ALWAYS ON DISCRETE,WILD_ST=CORRIDOR/TRANSITION AREA OTHER-SCH-D_FL=BUILDING STORY 2_SCH=D 1,960.00,9.6,1.174E-002,1.223E-005,1.151E-005,1.101E-002,0.000,0.000,0.224,0.000
 ZoneInfiltration Airflow Stats Nominal, CORRIDOR_POD_3_ZN_1_FLR_2 INFILTRATION,ALWAYS ON DISCRETE,WILD_ST=CORRIDOR/TRANSITION AREA OTHER-SCH-D_FL=BUILDING STORY 2_SCH=D 1,960.00,9.6,1.174E-002,1.223E-005,1.151E-005,1.101E-002,0.000,0.000,0.224,0.000
 ZoneInfiltration Airflow Stats Nominal, MECH_ZN_1_FLR_2 INFILTRATION,ALWAYS ON DISCRETE,WILD_ST=ELECTRICAL/MECHANICAL ROOM-SCH-D_FL=BUILDING STORY 2_SCH=D,342.00,1.7,1.181E-002,3.454E-005,3.454E-005,3.109E-002,0.000,0.000,0.224,0.000
! <AirFlow Model>, Simple
 AirFlow Model, Simple
! <RoomAir Model>, Zone Name, Mixing/Mundt/UCSDDV/UCSDCV/UCSDUFI/UCSDUFE/User Defined
RoomAir Model,ALL_ST=AUDIENCE SEATING AREA PERMANENT - AUDITORIUM_FL=BUILDING STORY 1_SCH=C,Mixing/Well-Stirred
RoomAir Model,ALL_ST=CLASSROOM/LECTURE HALL/TRAINING ROOM OTHER_FL=BUILDING STORY 1_SCH=D,Mixing/Well-Stirred
RoomAir Model,ALL_ST=CLASSROOM/LECTURE HALL/TRAINING ROOM OTHER_FL=BUILDING STORY 1_SCH=D 1,Mixing/Well-Stirred
RoomAir Model,ALL_ST=CLASSROOM/LECTURE HALL/TRAINING ROOM OTHER_FL=BUILDING STORY 1_SCH=D 2,Mixing/Well-Stirred
RoomAir Model,ALL_ST=CLASSROOM/LECTURE HALL/TRAINING ROOM OTHER_FL=BUILDING STORY 1_SCH=D 3,Mixing/Well-Stirred
RoomAir Model,ALL_ST=CLASSROOM/LECTURE HALL/TRAINING ROOM OTHER_FL=BUILDING STORY 2_SCH=D,Mixing/Well-Stirred
RoomAir Model,ALL_ST=CLASSROOM/LECTURE HALL/TRAINING ROOM OTHER_FL=BUILDING STORY 2_SCH=D 1,Mixing/Well-Stirred
RoomAir Model,ALL_ST=CLASSROOM/LECTURE HALL/TRAINING ROOM OTHER_FL=BUILDING STORY 2_SCH=D 2,Mixing/Well-Stirred
RoomAir Model,ALL_ST=CLASSROOM/LECTURE HALL/TRAINING ROOM OTHER_FL=BUILDING STORY 2_SCH=D 3,Mixing/Well-Stirred
RoomAir Model,ALL_ST=CONFERENCE/MEETING/MULTI-PURPOSE ROOM_FL=BUILDING STORY 1_SCH=C,Mixing/Well-Stirred
RoomAir Model,ALL_ST=FOOD PREPARATION AREA_FL=BUILDING STORY 1_SCH=B,Mixing/Well-Stirred
RoomAir Model,ALL_ST=GYMNASIUM/FITNESS CENTRE PLAYING AREA_FL=BUILDING STORY 1_SCH=B,Mixing/Well-Stirred
RoomAir Model,ALL_ST=GYMNASIUM/FITNESS CENTRE PLAYING AREA_FL=BUILDING STORY 1_SCH=B 1,Mixing/Well-Stirred
RoomAir Model,ALL_ST=LIBRARY READING AREA_FL=BUILDING STORY 2_SCH=C,Mixing/Well-Stirred
RoomAir Model,ALL_ST=LOBBY - OTHER_FL=BUILDING STORY 1_SCH=C,Mixing/Well-Stirred
RoomAir Model,ALL_ST=LOBBY - OTHER_FL=BUILDING STORY 2_SCH=C,Mixing/Well-Stirred
RoomAir Model,ALL_ST=OFFICE ENCLOSED <= 25 M2_FL=BUILDING STORY 1_SCH=A,Mixing/Well-Stirred
RoomAir Model,ALL_ST=OFFICE ENCLOSED <= 25 M2_FL=BUILDING STORY 2_SCH=A,Mixing/Well-Stirred
RoomAir Model,WET_ST=WASHROOM - OTHER-SCH-D_FL=BUILDING STORY 1_SCHD,Mixing/Well-Stirred
RoomAir Model,WET_ST=WASHROOM - OTHER-SCH-D_FL=BUILDING STORY 2_SCHD,Mixing/Well-Stirred
RoomAir Model,WILD_ST=CORRIDOR/TRANSITION AREA OTHER-SCH-D_FL=BUILDING STORY 1_SCH=D,Mixing/Well-Stirred
RoomAir Model,WILD_ST=CORRIDOR/TRANSITION AREA OTHER-SCH-D_FL=BUILDING STORY 1_SCH=D 1,Mixing/Well-Stirred
RoomAir Model,WILD_ST=CORRIDOR/TRANSITION AREA OTHER-SCH-D_FL=BUILDING STORY 2_SCH=D,Mixing/Well-Stirred
RoomAir Model,WILD_ST=CORRIDOR/TRANSITION AREA OTHER-SCH-D_FL=BUILDING STORY 2_SCH=D 1,Mixing/Well-Stirred
RoomAir Model,WILD_ST=ELECTRICAL/MECHANICAL ROOM-SCH-D_FL=BUILDING STORY 1_SCH=D,Mixing/Well-Stirred
RoomAir Model,WILD_ST=ELECTRICAL/MECHANICAL ROOM-SCH-D_FL=BUILDING STORY 2_SCH=D,Mixing/Well-Stirred
! <AirflowNetwork Model:Control>, No Multizone or Distribution/Multizone with Distribution/Multizone without Distribution/Multizone with Distribution only during Fan Operation
AirflowNetwork Model:Control,NoMultizoneOrDistribution
! <Zone Volume Capacitance Multiplier>, Sensible Heat Capacity Multiplier, Moisture Capacity Multiplier, Carbon Dioxide Capacity Multiplier, Generic Contaminant Capacity Multiplier
Zone Volume Capacitance Multiplier,   1.000 ,   1.000,   1.000,   1.000
! <Load Timesteps in Zone Design Calculation Averaging Window>, Value
 Load Timesteps in Zone Design Calculation Averaging Window,    6
! <Heating Sizing Factor Information>, Sizing Factor ID, Value
 Heating Sizing Factor Information, Global,   1.3000    
 Heating Sizing Factor Information, Zone ALL_ST=AUDIENCE SEATING AREA PERMANENT - AUDITORIUM_FL=BUILDING STORY 1_SCH=C,   1.3000    
 Heating Sizing Factor Information, Zone ALL_ST=CLASSROOM/LECTURE HALL/TRAINING ROOM OTHER_FL=BUILDING STORY 1_SCH=D,   1.3000    
 Heating Sizing Factor Information, Zone ALL_ST=CLASSROOM/LECTURE HALL/TRAINING ROOM OTHER_FL=BUILDING STORY 1_SCH=D 1,   1.3000    
 Heating Sizing Factor Information, Zone ALL_ST=CLASSROOM/LECTURE HALL/TRAINING ROOM OTHER_FL=BUILDING STORY 1_SCH=D 2,   1.3000    
 Heating Sizing Factor Information, Zone ALL_ST=CLASSROOM/LECTURE HALL/TRAINING ROOM OTHER_FL=BUILDING STORY 1_SCH=D 3,   1.3000    
 Heating Sizing Factor Information, Zone ALL_ST=CLASSROOM/LECTURE HALL/TRAINING ROOM OTHER_FL=BUILDING STORY 2_SCH=D,   1.3000    
 Heating Sizing Factor Information, Zone ALL_ST=CLASSROOM/LECTURE HALL/TRAINING ROOM OTHER_FL=BUILDING STORY 2_SCH=D 1,   1.3000    
 Heating Sizing Factor Information, Zone ALL_ST=CLASSROOM/LECTURE HALL/TRAINING ROOM OTHER_FL=BUILDING STORY 2_SCH=D 2,   1.3000    
 Heating Sizing Factor Information, Zone ALL_ST=CLASSROOM/LECTURE HALL/TRAINING ROOM OTHER_FL=BUILDING STORY 2_SCH=D 3,   1.3000    
 Heating Sizing Factor Information, Zone ALL_ST=CONFERENCE/MEETING/MULTI-PURPOSE ROOM_FL=BUILDING STORY 1_SCH=C,   1.3000    
 Heating Sizing Factor Information, Zone ALL_ST=FOOD PREPARATION AREA_FL=BUILDING STORY 1_SCH=B,   1.3000    
 Heating Sizing Factor Information, Zone ALL_ST=GYMNASIUM/FITNESS CENTRE PLAYING AREA_FL=BUILDING STORY 1_SCH=B,   1.3000    
 Heating Sizing Factor Information, Zone ALL_ST=GYMNASIUM/FITNESS CENTRE PLAYING AREA_FL=BUILDING STORY 1_SCH=B 1,   1.3000    
 Heating Sizing Factor Information, Zone ALL_ST=LIBRARY READING AREA_FL=BUILDING STORY 2_SCH=C,   1.3000    
 Heating Sizing Factor Information, Zone ALL_ST=LOBBY - OTHER_FL=BUILDING STORY 1_SCH=C,   1.3000    
 Heating Sizing Factor Information, Zone ALL_ST=LOBBY - OTHER_FL=BUILDING STORY 2_SCH=C,   1.3000    
 Heating Sizing Factor Information, Zone ALL_ST=OFFICE ENCLOSED <= 25 M2_FL=BUILDING STORY 1_SCH=A,   1.3000    
 Heating Sizing Factor Information, Zone ALL_ST=OFFICE ENCLOSED <= 25 M2_FL=BUILDING STORY 2_SCH=A,   1.3000    
 Heating Sizing Factor Information, Zone WET_ST=WASHROOM - OTHER-SCH-D_FL=BUILDING STORY 1_SCHD,   1.3000    
 Heating Sizing Factor Information, Zone WET_ST=WASHROOM - OTHER-SCH-D_FL=BUILDING STORY 2_SCHD,   1.3000    
 Heating Sizing Factor Information, Zone WILD_ST=CORRIDOR/TRANSITION AREA OTHER-SCH-D_FL=BUILDING STORY 1_SCH=D,   1.3000    
 Heating Sizing Factor Information, Zone WILD_ST=CORRIDOR/TRANSITION AREA OTHER-SCH-D_FL=BUILDING STORY 1_SCH=D 1,   1.3000    
 Heating Sizing Factor Information, Zone WILD_ST=CORRIDOR/TRANSITION AREA OTHER-SCH-D_FL=BUILDING STORY 2_SCH=D,   1.3000    
 Heating Sizing Factor Information, Zone WILD_ST=CORRIDOR/TRANSITION AREA OTHER-SCH-D_FL=BUILDING STORY 2_SCH=D 1,   1.3000    
 Heating Sizing Factor Information, Zone WILD_ST=ELECTRICAL/MECHANICAL ROOM-SCH-D_FL=BUILDING STORY 1_SCH=D,   1.3000    
 Heating Sizing Factor Information, Zone WILD_ST=ELECTRICAL/MECHANICAL ROOM-SCH-D_FL=BUILDING STORY 2_SCH=D,   1.3000    
! <Cooling Sizing Factor Information>, Sizing Factor ID, Value
 Cooling Sizing Factor Information, Global,   1.1000    
 Cooling Sizing Factor Information, Zone ALL_ST=AUDIENCE SEATING AREA PERMANENT - AUDITORIUM_FL=BUILDING STORY 1_SCH=C,   1.1000    
 Cooling Sizing Factor Information, Zone ALL_ST=CLASSROOM/LECTURE HALL/TRAINING ROOM OTHER_FL=BUILDING STORY 1_SCH=D,   1.1000    
 Cooling Sizing Factor Information, Zone ALL_ST=CLASSROOM/LECTURE HALL/TRAINING ROOM OTHER_FL=BUILDING STORY 1_SCH=D 1,   1.1000    
 Cooling Sizing Factor Information, Zone ALL_ST=CLASSROOM/LECTURE HALL/TRAINING ROOM OTHER_FL=BUILDING STORY 1_SCH=D 2,   1.1000    
 Cooling Sizing Factor Information, Zone ALL_ST=CLASSROOM/LECTURE HALL/TRAINING ROOM OTHER_FL=BUILDING STORY 1_SCH=D 3,   1.1000    
 Cooling Sizing Factor Information, Zone ALL_ST=CLASSROOM/LECTURE HALL/TRAINING ROOM OTHER_FL=BUILDING STORY 2_SCH=D,   1.1000    
 Cooling Sizing Factor Information, Zone ALL_ST=CLASSROOM/LECTURE HALL/TRAINING ROOM OTHER_FL=BUILDING STORY 2_SCH=D 1,   1.1000    
 Cooling Sizing Factor Information, Zone ALL_ST=CLASSROOM/LECTURE HALL/TRAINING ROOM OTHER_FL=BUILDING STORY 2_SCH=D 2,   1.1000    
 Cooling Sizing Factor Information, Zone ALL_ST=CLASSROOM/LECTURE HALL/TRAINING ROOM OTHER_FL=BUILDING STORY 2_SCH=D 3,   1.1000    
 Cooling Sizing Factor Information, Zone ALL_ST=CONFERENCE/MEETING/MULTI-PURPOSE ROOM_FL=BUILDING STORY 1_SCH=C,   1.1000    
 Cooling Sizing Factor Information, Zone ALL_ST=FOOD PREPARATION AREA_FL=BUILDING STORY 1_SCH=B,   1.1000    
 Cooling Sizing Factor Information, Zone ALL_ST=GYMNASIUM/FITNESS CENTRE PLAYING AREA_FL=BUILDING STORY 1_SCH=B,   1.1000    
 Cooling Sizing Factor Information, Zone ALL_ST=GYMNASIUM/FITNESS CENTRE PLAYING AREA_FL=BUILDING STORY 1_SCH=B 1,   1.1000    
 Cooling Sizing Factor Information, Zone ALL_ST=LIBRARY READING AREA_FL=BUILDING STORY 2_SCH=C,   1.1000    
 Cooling Sizing Factor Information, Zone ALL_ST=LOBBY - OTHER_FL=BUILDING STORY 1_SCH=C,   1.1000    
 Cooling Sizing Factor Information, Zone ALL_ST=LOBBY - OTHER_FL=BUILDING STORY 2_SCH=C,   1.1000    
 Cooling Sizing Factor Information, Zone ALL_ST=OFFICE ENCLOSED <= 25 M2_FL=BUILDING STORY 1_SCH=A,   1.1000    
 Cooling Sizing Factor Information, Zone ALL_ST=OFFICE ENCLOSED <= 25 M2_FL=BUILDING STORY 2_SCH=A,   1.1000    
 Cooling Sizing Factor Information, Zone WET_ST=WASHROOM - OTHER-SCH-D_FL=BUILDING STORY 1_SCHD,   1.1000    
 Cooling Sizing Factor Information, Zone WET_ST=WASHROOM - OTHER-SCH-D_FL=BUILDING STORY 2_SCHD,   1.1000    
 Cooling Sizing Factor Information, Zone WILD_ST=CORRIDOR/TRANSITION AREA OTHER-SCH-D_FL=BUILDING STORY 1_SCH=D,   1.1000    
 Cooling Sizing Factor Information, Zone WILD_ST=CORRIDOR/TRANSITION AREA OTHER-SCH-D_FL=BUILDING STORY 1_SCH=D 1,   1.1000    
 Cooling Sizing Factor Information, Zone WILD_ST=CORRIDOR/TRANSITION AREA OTHER-SCH-D_FL=BUILDING STORY 2_SCH=D,   1.1000    
 Cooling Sizing Factor Information, Zone WILD_ST=CORRIDOR/TRANSITION AREA OTHER-SCH-D_FL=BUILDING STORY 2_SCH=D 1,   1.1000    
 Cooling Sizing Factor Information, Zone WILD_ST=ELECTRICAL/MECHANICAL ROOM-SCH-D_FL=BUILDING STORY 1_SCH=D,   1.1000    
 Cooling Sizing Factor Information, Zone WILD_ST=ELECTRICAL/MECHANICAL ROOM-SCH-D_FL=BUILDING STORY 2_SCH=D,   1.1000    
! <Zone Sizing Information>, Zone Name, Load Type, Calc Des Load {W}, User Des Load {W}, Calc Des Air Flow Rate {m3/s}, User Des Air Flow Rate {m3/s}, Design Day Name, Date/Time of Peak, Temperature at Peak {C}, Humidity Ratio at Peak {kgWater/kgDryAir}, Floor Area {m2}, # Occupants, Calc Outdoor Air Flow Rate {m3/s}, Calc DOAS Heat Addition Rate {W}
 Zone Sizing Information, ALL_ST=AUDIENCE SEATING AREA PERMANENT - AUDITORIUM_FL=BUILDING STORY 1_SCH=C, Cooling, 15144.83841, 16659.32226, 1.14822, 4.06542, YELLOWKNIFE AP ANN CLG .4% CONDNS DB=>MWB, 7/21 17:00:00, 24.29400, 7.78272E-003, 988.00000, 197.67181, 4.06542, 0.00000
 Zone Sizing Information, ALL_ST=AUDIENCE SEATING AREA PERMANENT - AUDITORIUM_FL=BUILDING STORY 1_SCH=C, Heating, 17568.78093, 22839.41521, 0.67918, 4.06542, YELLOWKNIFE AP ANN HTG 99.6% CONDNS DB, 1/21 09:00:00, -40.50000, 7.63571E-005, 988.00000, 197.67181, 4.06542, 0.00000
 Zone Sizing Information, ALL_ST=CLASSROOM/LECTURE HALL/TRAINING ROOM OTHER_FL=BUILDING STORY 1_SCH=D, Cooling, 5879.72789, 6467.70067, 0.44582, 0.82680, YELLOWKNIFE AP ANN CLG .4% CONDNS DB=>MWB, 7/21 16:00:00, 24.92600, 7.78273E-003, 297.00000, 39.61439, 0.82680, 0.00000
 Zone Sizing Information, ALL_ST=CLASSROOM/LECTURE HALL/TRAINING ROOM OTHER_FL=BUILDING STORY 1_SCH=D, Heating, 5425.12361, 7052.66069, 0.21266, 0.82680, YELLOWKNIFE AP ANN HTG 99.6% CONDNS DB, 1/21 09:00:00, -40.50000, 7.63571E-005, 297.00000, 39.61439, 0.82680, 0.00000
 Zone Sizing Information, ALL_ST=CLASSROOM/LECTURE HALL/TRAINING ROOM OTHER_FL=BUILDING STORY 1_SCH=D 1, Cooling, 15920.81647, 17512.89811, 1.20722, 3.98368, YELLOWKNIFE AP ANN CLG .4% CONDNS DB=>MWB, 7/21 12:00:00, 24.37300, 7.78272E-003, 1431.00000, 190.86934, 3.98368, 0.00000
 Zone Sizing Information, ALL_ST=CLASSROOM/LECTURE HALL/TRAINING ROOM OTHER_FL=BUILDING STORY 1_SCH=D 1, Heating, 17496.11196, 22744.94555, 0.68182, 3.98368, YELLOWKNIFE AP ANN HTG 99.6% CONDNS DB, 1/21 09:00:00, -40.50000, 7.63571E-005, 1431.00000, 190.86934, 3.98368, 0.00000
 Zone Sizing Information, ALL_ST=CLASSROOM/LECTURE HALL/TRAINING ROOM OTHER_FL=BUILDING STORY 1_SCH=D 2, Cooling, 21481.24284, 23629.36712, 1.62884, 3.98368, YELLOWKNIFE AP ANN CLG .4% CONDNS DB=>MWB, 7/21 14:00:00, 25.40000, 7.78273E-003, 1431.00000, 190.86934, 3.98368, 0.00000
 Zone Sizing Information, ALL_ST=CLASSROOM/LECTURE HALL/TRAINING ROOM OTHER_FL=BUILDING STORY 1_SCH=D 2, Heating, 17433.03038, 22662.93949, 0.67931, 3.98368, YELLOWKNIFE AP ANN HTG 99.6% CONDNS DB, 1/21 09:00:00, -40.50000, 7.63571E-005, 1431.00000, 190.86934, 3.98368, 0.00000
 Zone Sizing Information, ALL_ST=CLASSROOM/LECTURE HALL/TRAINING ROOM OTHER_FL=BUILDING STORY 1_SCH=D 3, Cooling, 4972.90251, 5470.19276, 0.37708, 0.82680, YELLOWKNIFE AP ANN CLG .4% CONDNS DB=>MWB, 7/21 16:00:00, 24.92600, 7.78273E-003, 297.00000, 39.61439, 0.82680, 0.00000
 Zone Sizing Information, ALL_ST=CLASSROOM/LECTURE HALL/TRAINING ROOM OTHER_FL=BUILDING STORY 1_SCH=D 3, Heating, 5435.08392, 7065.60909, 0.21306, 0.82680, YELLOWKNIFE AP ANN HTG 99.6% CONDNS DB, 1/21 09:00:00, -40.50000, 7.63571E-005, 297.00000, 39.61439, 0.82680, 0.00000
 Zone Sizing Information, ALL_ST=CLASSROOM/LECTURE HALL/TRAINING ROOM OTHER_FL=BUILDING STORY 2_SCH=D, Cooling, 6001.31481, 6601.44629, 0.45504, 0.82680, YELLOWKNIFE AP ANN CLG .4% CONDNS DB=>MWB, 7/21 16:00:00, 24.92600, 7.78273E-003, 297.00000, 39.61439, 0.82680, 0.00000
 Zone Sizing Information, ALL_ST=CLASSROOM/LECTURE HALL/TRAINING ROOM OTHER_FL=BUILDING STORY 2_SCH=D, Heating, 6833.54616, 8883.61000, 0.26837, 0.82680, YELLOWKNIFE AP ANN HTG 99.6% CONDNS DB, 1/21 09:00:00, -40.50000, 7.63571E-005, 297.00000, 39.61439, 0.82680, 0.00000
 Zone Sizing Information, ALL_ST=CLASSROOM/LECTURE HALL/TRAINING ROOM OTHER_FL=BUILDING STORY 2_SCH=D 1, Cooling, 26934.39281, 29627.83209, 2.04229, 3.98368, YELLOWKNIFE AP ANN CLG .4% CONDNS DB=>MWB, 7/21 13:50:00, 25.33417, 7.78272E-003, 1431.00000, 190.86934, 3.98368, 0.00000
 Zone Sizing Information, ALL_ST=CLASSROOM/LECTURE HALL/TRAINING ROOM OTHER_FL=BUILDING STORY 2_SCH=D 1, Heating, 24114.86488, 31349.32434, 0.94375, 3.98368, YELLOWKNIFE AP ANN HTG 99.6% CONDNS DB, 1/21 09:00:00, -40.50000, 7.63571E-005, 1431.00000, 190.86934, 3.98368, 0.00000
 Zone Sizing Information, ALL_ST=CLASSROOM/LECTURE HALL/TRAINING ROOM OTHER_FL=BUILDING STORY 2_SCH=D 2, Cooling, 20736.16539, 22809.78193, 1.57236, 3.98368, YELLOWKNIFE AP ANN CLG .4% CONDNS DB=>MWB, 7/21 12:00:00, 24.37300, 7.78272E-003, 1431.00000, 190.86934, 3.98368, 0.00000
 Zone Sizing Information, ALL_ST=CLASSROOM/LECTURE HALL/TRAINING ROOM OTHER_FL=BUILDING STORY 2_SCH=D 2, Heating, 24161.40446, 31409.82580, 0.94559, 3.98368, YELLOWKNIFE AP ANN HTG 99.6% CONDNS DB, 1/21 09:00:00, -40.50000, 7.63571E-005, 1431.00000, 190.86934, 3.98368, 0.00000
 Zone Sizing Information, ALL_ST=CLASSROOM/LECTURE HALL/TRAINING ROOM OTHER_FL=BUILDING STORY 2_SCH=D 3, Cooling, 6861.40417, 7547.54459, 0.52024, 0.82680, YELLOWKNIFE AP ANN CLG .4% CONDNS DB=>MWB, 7/21 16:00:00, 24.92600, 7.78273E-003, 297.00000, 39.61439, 0.82680, 0.00000
 Zone Sizing Information, ALL_ST=CLASSROOM/LECTURE HALL/TRAINING ROOM OTHER_FL=BUILDING STORY 2_SCH=D 3, Heating, 6826.37942, 8874.29325, 0.26809, 0.82680, YELLOWKNIFE AP ANN HTG 99.6% CONDNS DB, 1/21 09:00:00, -40.50000, 7.63571E-005, 297.00000, 39.61439, 0.82680, 0.00000
 Zone Sizing Information, ALL_ST=CONFERENCE/MEETING/MULTI-PURPOSE ROOM_FL=BUILDING STORY 1_SCH=C, Cooling, 8029.95396, 8832.94936, 0.60900, 0.98268, YELLOWKNIFE AP ANN CLG .4% CONDNS DB=>MWB, 7/21 17:00:00, 24.29400, 7.78272E-003, 624.00000, 124.84536, 0.98268, 0.00000
 Zone Sizing Information, ALL_ST=CONFERENCE/MEETING/MULTI-PURPOSE ROOM_FL=BUILDING STORY 1_SCH=C, Heating, 7329.34006, 9528.14208, 0.28539, 0.98268, YELLOWKNIFE AP ANN HTG 99.6% CONDNS DB, 1/21 09:00:00, -40.50000, 7.63571E-005, 624.00000, 124.84536, 0.98268, 0.00000
 Zone Sizing Information, ALL_ST=FOOD PREPARATION AREA_FL=BUILDING STORY 1_SCH=B, Cooling, 2458.59143, 2704.45057, 0.18636, 0.29627, YELLOWKNIFE AP ANN CLG .4% CONDNS DB=>MWB, 7/21 13:00:00, 25.00500, 7.78272E-003, 216.00000, 10.80392, 0.29627, 0.00000
 Zone Sizing Information, ALL_ST=FOOD PREPARATION AREA_FL=BUILDING STORY 1_SCH=B, Heating, 1995.32213, 2593.91877, 7.73053E-002, 0.29627, YELLOWKNIFE AP ANN HTG 99.6% CONDNS DB, 1/21 10:00:00, -40.50000, 7.63571E-005, 216.00000, 10.80392, 0.29627, 0.00000
 Zone Sizing Information, ALL_ST=GYMNASIUM/FITNESS CENTRE PLAYING AREA_FL=BUILDING STORY 1_SCH=B, Cooling, 33203.14595, 36523.46054, 2.51734, 3.01142, YELLOWKNIFE AP ANN CLG .4% CONDNS DB=>MWB, 7/21 13:00:00, 25.00500, 7.78272E-003, 1976.00000, 395.34362, 3.01142, 0.00000
 Zone Sizing Information, ALL_ST=GYMNASIUM/FITNESS CENTRE PLAYING AREA_FL=BUILDING STORY 1_SCH=B, Heating, 26055.67454, 33872.37690, 0.98400, 3.01142, YELLOWKNIFE AP ANN HTG 99.6% CONDNS DB, 1/21 09:40:00, -40.50000, 7.63571E-005, 1976.00000, 395.34362, 3.01142, 0.00000
 Zone Sizing Information, ALL_ST=GYMNASIUM/FITNESS CENTRE PLAYING AREA_FL=BUILDING STORY 1_SCH=B 1, Cooling, 34614.91980, 38076.41178, 2.33407, 2.56748, YELLOWKNIFE AP ANN CLG .4% CONDNS DB=>MWB, 7/21 09:00:00, 21.05500, 7.78272E-003, 1248.00000, 249.69071, 1.90195, 0.00000
 Zone Sizing Information, ALL_ST=GYMNASIUM/FITNESS CENTRE PLAYING AREA_FL=BUILDING STORY 1_SCH=B 1, Heating, 23995.13315, 31193.67309, 0.89389, 1.90195, YELLOWKNIFE AP ANN HTG 99.6% CONDNS DB, 1/21 09:20:00, -40.50000, 7.63571E-005, 1248.00000, 249.69071, 1.90195, 0.00000
 Zone Sizing Information, ALL_ST=LIBRARY READING AREA_FL=BUILDING STORY 2_SCH=C, Cooling, 8081.34100, 8889.47510, 0.61252, 0.72542, YELLOWKNIFE AP ANN CLG .4% CONDNS DB=>MWB, 7/21 11:00:00, 23.58300, 7.78272E-003, 840.00000, 42.01526, 0.72542, 0.00000
 Zone Sizing Information, ALL_ST=LIBRARY READING AREA_FL=BUILDING STORY 2_SCH=C, Heating, 12092.05185, 15719.66740, 0.47211, 0.72542, YELLOWKNIFE AP ANN HTG 99.6% CONDNS DB, 1/21 09:00:00, -40.50000, 7.63571E-005, 840.00000, 42.01526, 0.72542, 0.00000
 Zone Sizing Information, ALL_ST=LOBBY - OTHER_FL=BUILDING STORY 1_SCH=C, Cooling, 2145.09961, 2359.60957, 0.16262, 0.86411, YELLOWKNIFE AP ANN CLG .4% CONDNS DB=>MWB, 7/21 14:10:00, 25.40000, 7.78273E-003, 210.00000, 21.00763, 0.86411, 0.00000
 Zone Sizing Information, ALL_ST=LOBBY - OTHER_FL=BUILDING STORY 1_SCH=C, Heating, 2493.13721, 3241.07838, 9.71077E-002, 0.86411, YELLOWKNIFE AP ANN HTG 99.6% CONDNS DB, 1/21 09:00:00, -40.50000, 7.63571E-005, 210.00000, 21.00763, 0.86411, 0.00000
 Zone Sizing Information, ALL_ST=LOBBY - OTHER_FL=BUILDING STORY 2_SCH=C, Cooling, 2872.75151, 3160.02666, 0.21778, 0.86411, YELLOWKNIFE AP ANN CLG .4% CONDNS DB=>MWB, 7/21 13:50:00, 25.33417, 7.78272E-003, 210.00000, 21.00763, 0.86411, 0.00000
 Zone Sizing Information, ALL_ST=LOBBY - OTHER_FL=BUILDING STORY 2_SCH=C, Heating, 3300.95469, 4291.24110, 0.12907, 0.86411, YELLOWKNIFE AP ANN HTG 99.6% CONDNS DB, 1/21 09:00:00, -40.50000, 7.63571E-005, 210.00000, 21.00763, 0.86411, 0.00000
 Zone Sizing Information, ALL_ST=OFFICE ENCLOSED <= 25 M2_FL=BUILDING STORY 1_SCH=A, Cooling, 6194.63617, 6814.09979, 0.46956, 0.51652, YELLOWKNIFE AP ANN CLG .4% CONDNS DB=>MWB, 7/21 15:00:00, 25.40000, 7.78273E-003, 532.00000, 26.60967, 0.22431, 0.00000
 Zone Sizing Information, ALL_ST=OFFICE ENCLOSED <= 25 M2_FL=BUILDING STORY 1_SCH=A, Heating, 6658.52099, 8656.07728, 0.25957, 0.33744, YELLOWKNIFE AP ANN HTG 99.6% CONDNS DB, 1/21 08:00:00, -40.50000, 7.63571E-005, 532.00000, 26.60967, 0.22431, 0.00000
 Zone Sizing Information, ALL_ST=OFFICE ENCLOSED <= 25 M2_FL=BUILDING STORY 2_SCH=A, Cooling, 7787.19568, 8565.91525, 0.59027, 0.64930, YELLOWKNIFE AP ANN CLG .4% CONDNS DB=>MWB, 7/21 15:00:00, 25.40000, 7.78273E-003, 532.00000, 26.60967, 0.22431, 0.00000
 Zone Sizing Information, ALL_ST=OFFICE ENCLOSED <= 25 M2_FL=BUILDING STORY 2_SCH=A, Heating, 8762.09139, 11390.71881, 0.34280, 0.44564, YELLOWKNIFE AP ANN HTG 99.6% CONDNS DB, 1/21 08:00:00, -40.50000, 7.63571E-005, 532.00000, 26.60967, 0.22431, 0.00000
 Zone Sizing Information, WET_ST=WASHROOM - OTHER-SCH-D_FL=BUILDING STORY 1_SCHD, Cooling, 1033.15963, 1136.47559, 7.83124E-002, 8.61437E-002, YELLOWKNIFE AP ANN CLG .4% CONDNS DB=>MWB, 7/21 16:00:00, 24.92600, 7.78273E-003, 210.00000, 7.00254, 6.40080E-002, 0.00000
 Zone Sizing Information, WET_ST=WASHROOM - OTHER-SCH-D_FL=BUILDING STORY 1_SCHD, Heating, 2971.52930, 3862.98809, 0.11606, 0.15087, YELLOWKNIFE AP ANN HTG 99.6% CONDNS DB, 1/21 09:00:00, -40.50000, 7.63571E-005, 210.00000, 7.00254, 6.40080E-002, 0.00000
 Zone Sizing Information, WET_ST=WASHROOM - OTHER-SCH-D_FL=BUILDING STORY 2_SCHD, Cooling, 1581.37929, 1739.51721, 0.11987, 0.13185, YELLOWKNIFE AP ANN CLG .4% CONDNS DB=>MWB, 7/21 14:30:00, 25.40000, 7.78273E-003, 210.00000, 7.00254, 6.40080E-002, 0.00000
 Zone Sizing Information, WET_ST=WASHROOM - OTHER-SCH-D_FL=BUILDING STORY 2_SCHD, Heating, 3776.59731, 4909.57651, 0.14791, 0.19229, YELLOWKNIFE AP ANN HTG 99.6% CONDNS DB, 1/21 09:00:00, -40.50000, 7.63571E-005, 210.00000, 7.00254, 6.40080E-002, 0.00000
 Zone Sizing Information, WILD_ST=CORRIDOR/TRANSITION AREA OTHER-SCH-D_FL=BUILDING STORY 1_SCH=D, Cooling, 3813.40912, 4194.75003, 0.28903, 0.34747, YELLOWKNIFE AP ANN CLG .4% CONDNS DB=>MWB, 7/21 17:20:00, 24.03067, 7.78272E-003, 1140.00000, 11.40414, 0.34747, 0.00000
 Zone Sizing Information, WILD_ST=CORRIDOR/TRANSITION AREA OTHER-SCH-D_FL=BUILDING STORY 1_SCH=D, Heating, 12105.43497, 15737.06546, 0.47032, 0.61142, YELLOWKNIFE AP ANN HTG 99.6% CONDNS DB, 1/21 09:00:00, -40.50000, 7.63571E-005, 1140.00000, 11.40414, 0.34747, 0.00000
[...]
 Component Sizing Information, Fan:VariableVolume, FAN VARIABLE VOLUME 3, Design Size Maximum Flow Rate [m3/s], 0.29627
 Component Sizing Information, HeatExchanger:AirToAir:SensibleAndLatent, SYS_3_PSZ ALL_ST=GYMNASIUM/FITNESS CENTRE PLAYING AREA_FL=BUILDING STORY 1_SCH=B ERV, Design Size Nominal Supply Air Flow Rate [m3/s], 3.01142
 Component Sizing Information, Coil:Cooling:DX:SingleSpeed, COIL COOLING DX SINGLE SPEED 15 288KBTU/HR 8.39EER, Design Size Rated Air Flow Rate [m3/s], 3.01142
 Component Sizing Information, Coil:Cooling:DX:SingleSpeed, COIL COOLING DX SINGLE SPEED 15 288KBTU/HR 8.39EER, Design Size Gross Rated Total Cooling Capacity [W], 49849.75997
 Component Sizing Information, Coil:Cooling:DX:SingleSpeed, COIL COOLING DX SINGLE SPEED 15 288KBTU/HR 8.39EER, Design Size Gross Rated Sensible Heat Ratio, 0.80066
 DX Cooling Coil Standard Rating Information, Coil:Cooling:DX:SingleSpeed, COIL COOLING DX SINGLE SPEED 15 288KBTU/HR 8.39EER, 47508.9, 2.53, 8.62, 9.11, 8.68
 Component Sizing Information, Coil:Heating:Electric, COIL HEATING ELECTRIC 15, Design Size Nominal Capacity [W], 296951.10325
 Component Sizing Information, Fan:VariableVolume, FAN VARIABLE VOLUME 5, Design Size Maximum Flow Rate [m3/s], 3.01142
 Component Sizing Information, HeatExchanger:AirToAir:SensibleAndLatent, SYS_3_PSZ ALL_ST=GYMNASIUM/FITNESS CENTRE PLAYING AREA_FL=BUILDING STORY 1_SCH=B 1 ERV, Design Size Nominal Supply Air Flow Rate [m3/s], 1.90195
 Component Sizing Information, Coil:Cooling:DX:SingleSpeed, COIL COOLING DX SINGLE SPEED 17 357KBTU/HR 8.39EER, Design Size Rated Air Flow Rate [m3/s], 2.56748
 Component Sizing Information, Coil:Cooling:DX:SingleSpeed, COIL COOLING DX SINGLE SPEED 17 357KBTU/HR 8.39EER, Design Size Gross Rated Total Cooling Capacity [W], 42500.86286
 Component Sizing Information, Coil:Cooling:DX:SingleSpeed, COIL COOLING DX SINGLE SPEED 17 357KBTU/HR 8.39EER, Design Size Gross Rated Sensible Heat Ratio, 0.80066
 DX Cooling Coil Standard Rating Information, Coil:Cooling:DX:SingleSpeed, COIL COOLING DX SINGLE SPEED 17 357KBTU/HR 8.39EER, 40505.1, 2.56, 8.73, 9.22, 8.79
 Component Sizing Information, Coil:Heating:Electric, COIL HEATING ELECTRIC 17, Design Size Nominal Capacity [W], 205137.76095
 Component Sizing Information, Fan:VariableVolume, FAN VARIABLE VOLUME 4, Design Size Maximum Flow Rate [m3/s], 2.56748
 Component Sizing Information, HeatExchanger:AirToAir:SensibleAndLatent, SYS_3_PSZ ALL_ST=LIBRARY READING AREA_FL=BUILDING STORY 2_SCH=C ERV, Design Size Nominal Supply Air Flow Rate [m3/s], 0.72542
 Component Sizing Information, Coil:Cooling:DX:SingleSpeed, COIL COOLING DX SINGLE SPEED 13 100KBTU/HR 9.44EER, Design Size Rated Air Flow Rate [m3/s], 0.72542
 Component Sizing Information, Coil:Cooling:DX:SingleSpeed, COIL COOLING DX SINGLE SPEED 13 100KBTU/HR 9.44EER, Design Size Gross Rated Total Cooling Capacity [W], 12008.34299
 Component Sizing Information, Coil:Cooling:DX:SingleSpeed, COIL COOLING DX SINGLE SPEED 13 100KBTU/HR 9.44EER, Design Size Gross Rated Sensible Heat Ratio, 0.80066
 DX Cooling Coil Standard Rating Information, Coil:Cooling:DX:SingleSpeed, COIL COOLING DX SINGLE SPEED 13 100KBTU/HR 9.44EER, 11444.5, 2.70, 9.21, 9.72, 9.22
 Component Sizing Information, Coil:Heating:Electric, COIL HEATING ELECTRIC 13, Design Size Nominal Capacity [W], 71532.75564
 Component Sizing Information, Fan:VariableVolume, FAN VARIABLE VOLUME 7, Design Size Maximum Flow Rate [m3/s], 0.72542
 Component Sizing Information, HeatExchanger:AirToAir:SensibleAndLatent, SYS_3_PSZ ALL_ST=LOBBY - OTHER_FL=BUILDING STORY 1_SCH=C ERV, Design Size Nominal Supply Air Flow Rate [m3/s], 0.86411
 Component Sizing Information, Coil:Cooling:DX:SingleSpeed, COIL COOLING DX SINGLE SPEED 3 49KBTU/HR 14.0SEER, Design Size Rated Air Flow Rate [m3/s], 0.86411
 Component Sizing Information, Coil:Cooling:DX:SingleSpeed, COIL COOLING DX SINGLE SPEED 3 49KBTU/HR 14.0SEER, Design Size Gross Rated Total Cooling Capacity [W], 14304.05562
 Component Sizing Information, Coil:Cooling:DX:SingleSpeed, COIL COOLING DX SINGLE SPEED 3 49KBTU/HR 14.0SEER, Design Size Gross Rated Sensible Heat Ratio, 0.80066
 DX Cooling Coil Standard Rating Information, Coil:Cooling:DX:SingleSpeed, COIL COOLING DX SINGLE SPEED 3 49KBTU/HR 14.0SEER, 13632.4, 3.09, 10.55, 11.12, 10.40
 Component Sizing Information, Coil:Heating:Electric, COIL HEATING ELECTRIC 3, Design Size Nominal Capacity [W], 85208.13540
 Component Sizing Information, Fan:VariableVolume, FAN VARIABLE VOLUME 13, Design Size Maximum Flow Rate [m3/s], 0.86411
 Component Sizing Information, HeatExchanger:AirToAir:SensibleAndLatent, SYS_3_PSZ ALL_ST=LOBBY - OTHER_FL=BUILDING STORY 2_SCH=C ERV, Design Size Nominal Supply Air Flow Rate [m3/s], 0.86411
 Component Sizing Information, Coil:Cooling:DX:SingleSpeed, COIL COOLING DX SINGLE SPEED 4 49KBTU/HR 14.0SEER, Design Size Rated Air Flow Rate [m3/s], 0.86411
 Component Sizing Information, Coil:Cooling:DX:SingleSpeed, COIL COOLING DX SINGLE SPEED 4 49KBTU/HR 14.0SEER, Design Size Gross Rated Total Cooling Capacity [W], 14304.05562
 Component Sizing Information, Coil:Cooling:DX:SingleSpeed, COIL COOLING DX SINGLE SPEED 4 49KBTU/HR 14.0SEER, Design Size Gross Rated Sensible Heat Ratio, 0.80066
 DX Cooling Coil Standard Rating Information, Coil:Cooling:DX:SingleSpeed, COIL COOLING DX SINGLE SPEED 4 49KBTU/HR 14.0SEER, 13632.4, 3.09, 10.55, 11.12, 10.40
 Component Sizing Information, Coil:Heating:Electric, COIL HEATING ELECTRIC 4, Design Size Nominal Capacity [W], 85208.13540
 Component Sizing Information, Fan:VariableVolume, FAN VARIABLE VOLUME 14, Design Size Maximum Flow Rate [m3/s], 0.86411
 Component Sizing Information, HeatExchanger:AirToAir:SensibleAndLatent, SYS_3_PSZ ALL_ST=OFFICE ENCLOSED <= 25 M2_FL=BUILDING STORY 1_SCH=A ERV, Design Size Nominal Supply Air Flow Rate [m3/s], 0.22431
 Component Sizing Information, Coil:Cooling:DX:SingleSpeed, COIL COOLING DX SINGLE SPEED 14 81KBTU/HR 9.44EER, Design Size Rated Air Flow Rate [m3/s], 0.51652
 Component Sizing Information, Coil:Cooling:DX:SingleSpeed, COIL COOLING DX SINGLE SPEED 14 81KBTU/HR 9.44EER, Design Size Gross Rated Total Cooling Capacity [W], 8550.17825
 Component Sizing Information, Coil:Cooling:DX:SingleSpeed, COIL COOLING DX SINGLE SPEED 14 81KBTU/HR 9.44EER, Design Size Gross Rated Sensible Heat Ratio, 0.80066
 DX Cooling Coil Standard Rating Information, Coil:Cooling:DX:SingleSpeed, COIL COOLING DX SINGLE SPEED 14 81KBTU/HR 9.44EER, 8148.7, 2.69, 9.18, 9.69, 9.18
 Component Sizing Information, Coil:Heating:Electric, COIL HEATING ELECTRIC 14, Design Size Nominal Capacity [W], 29380.95142
 Component Sizing Information, Fan:VariableVolume, FAN VARIABLE VOLUME 6, Design Size Maximum Flow Rate [m3/s], 0.51652
 Component Sizing Information, HeatExchanger:AirToAir:SensibleAndLatent, SYS_3_PSZ ALL_ST=OFFICE ENCLOSED <= 25 M2_FL=BUILDING STORY 2_SCH=A ERV, Design Size Nominal Supply Air Flow Rate [m3/s], 0.22431
 Component Sizing Information, Coil:Cooling:DX:SingleSpeed, COIL COOLING DX SINGLE SPEED 19 105KBTU/HR 9.44EER, Design Size Rated Air Flow Rate [m3/s], 0.64930
 Component Sizing Information, Coil:Cooling:DX:SingleSpeed, COIL COOLING DX SINGLE SPEED 19 105KBTU/HR 9.44EER, Design Size Gross Rated Total Cooling Capacity [W], 10748.18622
 Component Sizing Information, Coil:Cooling:DX:SingleSpeed, COIL COOLING DX SINGLE SPEED 19 105KBTU/HR 9.44EER, Design Size Gross Rated Sensible Heat Ratio, 0.80066
 DX Cooling Coil Standard Rating Information, Coil:Cooling:DX:SingleSpeed, COIL COOLING DX SINGLE SPEED 19 105KBTU/HR 9.44EER, 10243.5, 2.70, 9.22, 9.73, 9.22
 Component Sizing Information, Coil:Heating:Electric, COIL HEATING ELECTRIC 19, Design Size Nominal Capacity [W], 32683.09592
 Component Sizing Information, Fan:VariableVolume, FAN VARIABLE VOLUME 2, Design Size Maximum Flow Rate [m3/s], 0.64930
 Component Sizing Information, HeatExchanger:AirToAir:SensibleAndLatent, SYS_4_PSZ_WET_ST=WASHROOM - OTHER-SCH-D_FL=BUILDING STORY 1_SCHD ERV, Design Size Nominal Supply Air Flow Rate [m3/s], 0.12802
 Component Sizing Information, Coil:Cooling:DX:SingleSpeed, COIL COOLING DX SINGLE SPEED 1 35KBTU/HR 14.0SEER, Design Size Rated Air Flow Rate [m3/s], 0.34316
 Component Sizing Information, Coil:Cooling:DX:SingleSpeed, COIL COOLING DX SINGLE SPEED 1 35KBTU/HR 14.0SEER, Design Size Gross Rated Total Cooling Capacity [W], 5680.48445
 Component Sizing Information, Coil:Cooling:DX:SingleSpeed, COIL COOLING DX SINGLE SPEED 1 35KBTU/HR 14.0SEER, Design Size Gross Rated Sensible Heat Ratio, 0.80066
 DX Cooling Coil Standard Rating Information, Coil:Cooling:DX:SingleSpeed, COIL COOLING DX SINGLE SPEED 1 35KBTU/HR 14.0SEER, 5413.7, 3.09, 10.55, 11.12, 10.40
 Component Sizing Information, Coil:Heating:Electric, COIL HEATING ELECTRIC 1, Design Size Nominal Capacity [W], 17971.45217
 Component Sizing Information, Fan:VariableVolume, FAN VARIABLE VOLUME 9, Design Size Maximum Flow Rate [m3/s], 0.34316
 Component Sizing Information, HeatExchanger:AirToAir:SensibleAndLatent, SYS_4_PSZ_WILD_ST=CORRIDOR/TRANSITION AREA OTHER-SCH-D_FL=BUILDING STORY 2_SCH=D ERV, Design Size Nominal Supply Air Flow Rate [m3/s], 1.48864
 Component Sizing Information, Coil:Cooling:DX:SingleSpeed, COIL COOLING DX SINGLE SPEED 2 372KBTU/HR 8.39EER, Design Size Rated Air Flow Rate [m3/s], 3.45941
 Component Sizing Information, Coil:Cooling:DX:SingleSpeed, COIL COOLING DX SINGLE SPEED 2 372KBTU/HR 8.39EER, Design Size Gross Rated Total Cooling Capacity [W], 57265.49196
 Component Sizing Information, Coil:Cooling:DX:SingleSpeed, COIL COOLING DX SINGLE SPEED 2 372KBTU/HR 8.39EER, Design Size Gross Rated Sensible Heat Ratio, 0.80066
 DX Cooling Coil Standard Rating Information, Coil:Cooling:DX:SingleSpeed, COIL COOLING DX SINGLE SPEED 2 372KBTU/HR 8.39EER, 54576.4, 2.57, 8.76, 9.25, 8.81
 Component Sizing Information, Coil:Heating:Electric, COIL HEATING ELECTRIC 2, Design Size Nominal Capacity [W], 195782.76964
 Component Sizing Information, Fan:VariableVolume, FAN VARIABLE VOLUME 11, Design Size Maximum Flow Rate [m3/s], 3.45941
 Component Sizing Information, Coil:WaterHeating:AirToWaterHeatPump:Pumped, COIL WATER HEATING AIR TO WATER HEAT PUMP 1, Design Size Rated Evaporator Air Flow Rate [m3/s], 22.35169
 Component Sizing Information, Coil:WaterHeating:AirToWaterHeatPump:Pumped, COIL WATER HEATING AIR TO WATER HEAT PUMP 1, Design Size Rated Condenser Water Flow Rate [m3/s], 1.99190E-002
 Component Sizing Information, Fan:OnOff, FAN ON OFF 1, Design Size Maximum Flow Rate [m3/s], 22.35169
Heat Pump Water Heater Information,WaterHeater:HeatPump:PumpedCondenser,536GAL ELECTRICITY WATER HEATER - 1515KBTU/HR 1.0 THERM EFF ASHPWH,2.0282,360963.3,0.992,1.5449,283128
 Component Sizing Information, WaterHeater:HeatPump:PumpedCondenser, 536GAL ELECTRICITY WATER HEATER - 1515KBTU/HR 1.0 THERM EFF ASHPWH, Condenser water flow rate [m3/s], 1.99190E-002
 Component Sizing Information, WaterHeater:HeatPump:PumpedCondenser, 536GAL ELECTRICITY WATER HEATER - 1515KBTU/HR 1.0 THERM EFF ASHPWH, Evaporator air flow rate [m3/s], 22.35169
 Component Sizing Information, PlantLoop, HOT WATER LOOP, Maximum Loop Flow Rate [m3/s], 5.68698E-003
 Component Sizing Information, PlantLoop, HOT WATER LOOP, Plant Loop Volume [m3], 0.68244
 Component Sizing Information, Pump:VariableSpeed, PUMP VARIABLE SPEED 1, Design Flow Rate [m3/s], 5.68698E-003
 Component Sizing Information, Pump:VariableSpeed, PUMP VARIABLE SPEED 1, Design Power Consumption [W], 1711.55209
 Component Sizing Information, Boiler:HotWater, PRIMARY BOILER 2032KBTU/HR 0.834 THERMAL EFF, Design Size Nominal Capacity [W], 382234.94888
 Component Sizing Information, Boiler:HotWater, PRIMARY BOILER 2032KBTU/HR 0.834 THERMAL EFF, User-Specified Nominal Capacity [W], 595602.81120
 Component Sizing Information, Boiler:HotWater, PRIMARY BOILER 2032KBTU/HR 0.834 THERMAL EFF, Design Size Design Water Flow Rate [m3/s], 5.68698E-003
 Component Sizing Information, Boiler:HotWater, SECONDARY BOILER 0KBTU/HR 0.847 AFUE, Design Size Nominal Capacity [W], 382234.94888
 Component Sizing Information, Boiler:HotWater, SECONDARY BOILER 0KBTU/HR 0.847 AFUE, User-Specified Nominal Capacity [W], 1.00000E-003
 Component Sizing Information, Boiler:HotWater, SECONDARY BOILER 0KBTU/HR 0.847 AFUE, Design Size Design Water Flow Rate [m3/s], 5.68698E-003
 Component Sizing Information, PlantLoop, MAIN SERVICE WATER LOOP, Maximum Loop Flow Rate [m3/s], 7.40089E-004
 Component Sizing Information, PlantLoop, MAIN SERVICE WATER LOOP, Plant Loop Volume [m3], 8.88106E-002
 Component Sizing Information, Pump:ConstantSpeed, SERVICE WATER LOOP PUMP, Design Flow Rate [m3/s], 7.40089E-004
 Component Sizing Information, Pump:ConstantSpeed, SERVICE WATER LOOP PUMP, Design Power Consumption [W], 1174.27378
 Component Sizing Information, WaterHeater:Mixed, 536GAL ELECTRICITY WATER HEATER - 1515KBTU/HR 1.0 THERM EFF, Use Side Design Flow Rate [m3/s], 7.40089E-004
! <Environment>,Environment Name,Environment Type, Start Date, End Date, Start DayOfWeek, Duration {#days}, Source:Start DayOfWeek,  Use Daylight Saving, Use Holidays, Apply Weekend Holiday Rule,  Use Rain Values, Use Snow Values
! <Environment:Special Days>, Special Day Name, Special Day Type, Source, Start Date, Duration {#days}
! <Environment:Daylight Saving>, Daylight Saving Indicator, Source, Start Date, End Date
! <Environment:WarmupDays>, NumberofWarmupDays
Environment,RUN PERIOD 1,WeatherFileRunPeriod,01/01,12/31,Sunday,365,Use RunPeriod Specified Day,No,No,No,Yes,Yes
Environment:Daylight Saving,No,RunPeriod Object
Environment:WarmupDays,  6
! <Tabular Report>,Style,Unit Conversion
Tabular Report,HTML,None
! <Warmup Convergence Information>,Zone Name,Environment Type/Name,Average Warmup Temperature Difference {deltaC},Std Dev Warmup Temperature Difference {deltaC},Max Temperature Pass/Fail Convergence,Min Temperature Pass/Fail Convergence,Average Warmup Load Difference {W},Std Dev Warmup Load Difference {W},Heating Load Pass/Fail Convergence,Cooling Load Pass/Fail Convergence
 Warmup Convergence Information,ALL_ST=AUDIENCE SEATING AREA PERMANENT - AUDITORIUM_FL=BUILDING STORY 1_SCH=C,RunPeriod: RUN PERIOD 1,7.8955275201E-002,0.2083650777,Pass,Pass,0.1273151285,0.2334147975,Pass,Pass
 Warmup Convergence Information,ALL_ST=CLASSROOM/LECTURE HALL/TRAINING ROOM OTHER_FL=BUILDING STORY 1_SCH=D,RunPeriod: RUN PERIOD 1,2.8298647535E-004,2.1857897218E-004,Pass,Pass,6.1353812964E-003,9.7286463932E-003,Pass,Pass
 Warmup Convergence Information,ALL_ST=CLASSROOM/LECTURE HALL/TRAINING ROOM OTHER_FL=BUILDING STORY 1_SCH=D 1,RunPeriod: RUN PERIOD 1,2.0011838873E-004,1.4711673797E-004,Pass,Pass,1.2275610956E-003,1.0345025701E-003,Pass,Pass
 Warmup Convergence Information,ALL_ST=CLASSROOM/LECTURE HALL/TRAINING ROOM OTHER_FL=BUILDING STORY 1_SCH=D 2,RunPeriod: RUN PERIOD 1,1.4778407457E-004,1.2081862098E-004,Pass,Pass,7.3782211333E-003,1.0765831761E-002,Pass,Pass
 Warmup Convergence Information,ALL_ST=CLASSROOM/LECTURE HALL/TRAINING ROOM OTHER_FL=BUILDING STORY 1_SCH=D 3,RunPeriod: RUN PERIOD 1,3.5954216093E-004,2.5414711747E-004,Pass,Pass,1.9296202218E-003,2.3392193523E-003,Pass,Pass
 Warmup Convergence Information,ALL_ST=CLASSROOM/LECTURE HALL/TRAINING ROOM OTHER_FL=BUILDING STORY 2_SCH=D,RunPeriod: RUN PERIOD 1,5.5128510248E-004,4.2818669113E-004,Pass,Pass,2.9060130810E-003,3.7942929419E-003,Pass,Pass
 Warmup Convergence Information,ALL_ST=CLASSROOM/LECTURE HALL/TRAINING ROOM OTHER_FL=BUILDING STORY 2_SCH=D 1,RunPeriod: RUN PERIOD 1,4.0282269953E-004,3.1764300406E-004,Pass,Pass,7.7784033406E-003,1.1850005451E-002,Pass,Pass
 Warmup Convergence Information,ALL_ST=CLASSROOM/LECTURE HALL/TRAINING ROOM OTHER_FL=BUILDING STORY 2_SCH=D 2,RunPeriod: RUN PERIOD 1,4.4252579347E-004,3.3365673428E-004,Pass,Pass,3.3014130337E-003,3.9074539846E-003,Pass,Pass
 Warmup Convergence Information,ALL_ST=CLASSROOM/LECTURE HALL/TRAINING ROOM OTHER_FL=BUILDING STORY 2_SCH=D 3,RunPeriod: RUN PERIOD 1,4.9076130830E-004,3.7396638736E-004,Pass,Pass,6.7789106250E-003,1.0980506806E-002,Pass,Pass
 Warmup Convergence Information,ALL_ST=CONFERENCE/MEETING/MULTI-PURPOSE ROOM_FL=BUILDING STORY 1_SCH=C,RunPeriod: RUN PERIOD 1,6.8297675078E-002,0.1629724301,Pass,Pass,0.4281037884,1.7672532049,Pass,Pass
 Warmup Convergence Information,ALL_ST=FOOD PREPARATION AREA_FL=BUILDING STORY 1_SCH=B,RunPeriod: RUN PERIOD 1,6.4443049872E-002,0.1548557642,Pass,Pass,0.5965152037,3.5070189574,Pass,Pass
 Warmup Convergence Information,ALL_ST=GYMNASIUM/FITNESS CENTRE PLAYING AREA_FL=BUILDING STORY 1_SCH=B,RunPeriod: RUN PERIOD 1,0.1161325983,0.2053648766,Pass,Pass,0.5663379937,2.1163129686,Pass,Pass
 Warmup Convergence Information,ALL_ST=GYMNASIUM/FITNESS CENTRE PLAYING AREA_FL=BUILDING STORY 1_SCH=B 1,RunPeriod: RUN PERIOD 1,0.1272813190,0.2299670302,Pass,Pass,1.4176747257,8.9482345421,Pass,Pass
 Warmup Convergence Information,ALL_ST=LIBRARY READING AREA_FL=BUILDING STORY 2_SCH=C,RunPeriod: RUN PERIOD 1,5.7624503889E-002,0.1981334012,Pass,Pass,5.7176941955E-002,0.1143402853,Pass,Pass
 Warmup Convergence Information,ALL_ST=LOBBY - OTHER_FL=BUILDING STORY 1_SCH=C,RunPeriod: RUN PERIOD 1,5.5548044263E-002,0.2095371459,Pass,Pass,4.1269652116E-002,0.1001870828,Pass,Pass
 Warmup Convergence Information,ALL_ST=LOBBY - OTHER_FL=BUILDING STORY 2_SCH=C,RunPeriod: RUN PERIOD 1,5.5659291908E-002,0.2430858577,Pass,Pass,5.0834085249E-002,9.5701516616E-002,Pass,Pass
 Warmup Convergence Information,ALL_ST=OFFICE ENCLOSED <= 25 M2_FL=BUILDING STORY 1_SCH=A,RunPeriod: RUN PERIOD 1,7.1472052660E-003,1.3400741213E-002,Pass,Pass,8.7200833615E-002,0.2966288428,Pass,Pass
 Warmup Convergence Information,ALL_ST=OFFICE ENCLOSED <= 25 M2_FL=BUILDING STORY 2_SCH=A,RunPeriod: RUN PERIOD 1,4.9227232633E-004,1.7967548019E-003,Pass,Pass,6.8820659514E-002,0.2451787934,Pass,Pass
 Warmup Convergence Information,WET_ST=WASHROOM - OTHER-SCH-D_FL=BUILDING STORY 1_SCHD,RunPeriod: RUN PERIOD 1,1.5021136703E-004,1.2269687992E-004,Pass,Pass,6.9235957450E-003,5.6760756145E-003,Pass,Pass
 Warmup Convergence Information,WET_ST=WASHROOM - OTHER-SCH-D_FL=BUILDING STORY 2_SCHD,RunPeriod: RUN PERIOD 1,3.5922836962E-004,2.9081220897E-004,Pass,Pass,6.0296325104E-003,5.9697911850E-003,Pass,Pass
 Warmup Convergence Information,WILD_ST=CORRIDOR/TRANSITION AREA OTHER-SCH-D_FL=BUILDING STORY 1_SCH=D,RunPeriod: RUN PERIOD 1,5.2558529785E-005,5.3101694746E-005,Pass,Pass,2.0718918139E-002,1.5133693958E-002,Pass,Pass
 Warmup Convergence Information,WILD_ST=CORRIDOR/TRANSITION AREA OTHER-SCH-D_FL=BUILDING STORY 1_SCH=D 1,RunPeriod: RUN PERIOD 1,1.0102075529E-004,7.8794050328E-005,Pass,Pass,5.3636644160E-003,7.3491922617E-003,Pass,Pass
 Warmup Convergence Information,WILD_ST=CORRIDOR/TRANSITION AREA OTHER-SCH-D_FL=BUILDING STORY 2_SCH=D,RunPeriod: RUN PERIOD 1,2.2840043371E-004,1.6575959450E-004,Pass,Pass,9.1828829993E-003,9.5382988540E-003,Pass,Pass
 Warmup Convergence Information,WILD_ST=CORRIDOR/TRANSITION AREA OTHER-SCH-D_FL=BUILDING STORY 2_SCH=D 1,RunPeriod: RUN PERIOD 1,3.5947353041E-004,2.8475574900E-004,Pass,Pass,5.6535306315E-003,7.6787103418E-003,Pass,Pass
 Warmup Convergence Information,WILD_ST=ELECTRICAL/MECHANICAL ROOM-SCH-D_FL=BUILDING STORY 1_SCH=D,RunPeriod: RUN PERIOD 1,1.9091508352E-002,1.3077037423E-002,Pass,Pass,0.0000000000,0.0000000000,Pass,Pass
 Warmup Convergence Information,WILD_ST=ELECTRICAL/MECHANICAL ROOM-SCH-D_FL=BUILDING STORY 2_SCH=D,RunPeriod: RUN PERIOD 1,9.7226829744E-003,1.4538935897E-002,Pass,Pass,4.9780233852E-002,0.1568529957,Pass,Pass
! <Program Control Information:Threads/Parallel Sims>, Threading Supported,Maximum Number of Threads, Env Set Threads (OMP_NUM_THREADS), EP Env Set Threads (EP_OMP_NUM_THREADS), IDF Set Threads, Number of Threads Used (Interior Radiant Exchange), Number Nominal Surfaces, Number Parallel Sims
Program Control:Threads/Parallel Sims, No,1, N/A, N/A, N/A, N/A, N/A, N/A
End of Data
