Program Version,EnergyPlus, Version 8.9.0-eba93e8e1b, YMD=2019.08.13 17:58
! <Version>, Version ID
 Version, 8.9
! <Timesteps per Hour>, #TimeSteps, Minutes per TimeStep {minutes}
 Timesteps per Hour,  4, 15
! <System Convergence Limits>, Minimum System TimeStep {minutes}, Max HVAC Iterations, Minimum Plant Iterations, Maximum Plant Iterations
 System Convergence Limits, 1, 20, 2, 8
! <Simulation Control>, Do Zone Sizing, Do System Sizing, Do Plant Sizing, Do Design Days, Do Weather Simulation, Do HVAC Sizing Simulation
 Simulation Control, Yes, Yes, Yes, No, Yes, No
! <Output Reporting Tolerances>, Tolerance for Time Heating Setpoint Not Met, Tolerance for Zone Cooling Setpoint Not Met Time
 Output Reporting Tolerances, 1.000, 1.000, 
! <Site:GroundTemperature:BuildingSurface>,Jan{C},Feb{C},Mar{C},Apr{C},May{C},Jun{C},Jul{C},Aug{C},Sep{C},Oct{C},Nov{C},Dec{C}
 Site:GroundTemperature:BuildingSurface,  19.53,  19.50,  19.54,  19.60,  20.00,  21.64,  22.23,  22.38,  21.45,  20.12,  19.80,  19.63
! <Site:GroundTemperature:FCfactorMethod>,Jan{C},Feb{C},Mar{C},Apr{C},May{C},Jun{C},Jul{C},Aug{C},Sep{C},Oct{C},Nov{C},Dec{C}
 Site:GroundTemperature:FCfactorMethod,   4.91,   4.40,   5.30,   6.72,  10.43,  13.29,  15.22,  15.81,  14.81,  12.58,   9.61,   6.86
! <Site:GroundTemperature:Shallow>,Jan{C},Feb{C},Mar{C},Apr{C},May{C},Jun{C},Jul{C},Aug{C},Sep{C},Oct{C},Nov{C},Dec{C}
 Site:GroundTemperature:Shallow,  13.00,  13.00,  13.00,  13.00,  13.00,  13.00,  13.00,  13.00,  13.00,  13.00,  13.00,  13.00
! <Site:GroundTemperature:Deep>,Jan{C},Feb{C},Mar{C},Apr{C},May{C},Jun{C},Jul{C},Aug{C},Sep{C},Oct{C},Nov{C},Dec{C}
 Site:GroundTemperature:Deep,  16.00,  16.00,  16.00,  16.00,  16.00,  16.00,  16.00,  16.00,  16.00,  16.00,  16.00,  16.00
! <Site:GroundReflectance>,Jan{dimensionless},Feb{dimensionless},Mar{dimensionless},Apr{dimensionless},May{dimensionless},Jun{dimensionless},Jul{dimensionless},Aug{dimensionless},Sep{dimensionless},Oct{dimensionless},Nov{dimensionless},Dec{dimensionless}
 Site:GroundReflectance,  0.20,  0.20,  0.20,  0.20,  0.20,  0.20,  0.20,  0.20,  0.20,  0.20,  0.20,  0.20
! <Site:GroundReflectance:SnowModifier>, Normal, Daylighting {dimensionless}
 Site:GroundReflectance:SnowModifier,   1.000,   1.000
! <Site:GroundReflectance:Snow>,Jan{dimensionless},Feb{dimensionless},Mar{dimensionless},Apr{dimensionless},May{dimensionless},Jun{dimensionless},Jul{dimensionless},Aug{dimensionless},Sep{dimensionless},Oct{dimensionless},Nov{dimensionless},Dec{dimensionless}
 Site:GroundReflectance:Snow,  0.20,  0.20,  0.20,  0.20,  0.20,  0.20,  0.20,  0.20,  0.20,  0.20,  0.20,  0.20
! <Site:GroundReflectance:Snow:Daylighting>,Jan{dimensionless},Feb{dimensionless},Mar{dimensionless},Apr{dimensionless},May{dimensionless},Jun{dimensionless},Jul{dimensionless},Aug{dimensionless},Sep{dimensionless},Oct{dimensionless},Nov{dimensionless},Dec{dimensionless}
 Site:GroundReflectance:Snow:Daylighting,  0.20,  0.20,  0.20,  0.20,  0.20,  0.20,  0.20,  0.20,  0.20,  0.20,  0.20,  0.20
! <Environment:Weather Station>,Wind Sensor Height Above Ground {m},Wind Speed Profile Exponent {},Wind Speed Profile Boundary Layer Thickness {m},Air Temperature Sensor Height Above Ground {m},Wind Speed Modifier Coefficient-Internal,Temperature Modifier Coefficient-Internal
Environment:Weather Station,10.000,0.140,270.000,1.500,1.586,9.750E-003
! <Site:Location>, Location Name, Latitude {N+/S- Deg}, Longitude {E+/W- Deg},  Time Zone Number {GMT+/-}, Elevation {m},  Standard Pressure at Elevation {Pa}, Standard RhoAir at Elevation
Site:Location,Victoria Intl AP BC CAN CWEC2016 WMO#=717990,48.65,-123.43,-8.00,19.50,101091,1.2015
! <Building Information>, Building Name,North Axis {deg},Terrain,  Loads Convergence Tolerance Value,Temperature Convergence Tolerance Value,  Solar Distribution,Maximum Number of Warmup Days,Minimum Number of Warmup Days
 Building Information,SecondarySchool-CAN_BC_Victoria.Intl.AP.717990_CWEC2016.epw created: 2019-08-07 21:14:20 +0000,0.000,City,4.00000E-002,0.20000,FullInteriorAndExterior,25,6
! <Inside Convection Algorithm>, Algorithm {Simple | TARP | CeilingDiffuser | AdaptiveConvectionAlgorithm}
Inside Convection Algorithm,TARP
! <Outside Convection Algorithm>, Algorithm {SimpleCombined | TARP | MoWitt | DOE-2 | AdaptiveConvectionAlgorithm}
Outside Convection Algorithm,TARP
! <Sky Radiance Distribution>, Value {Anisotropic}
Sky Radiance Distribution,Anisotropic
! <Zone Air Solution Algorithm>, Value {ThirdOrderBackwardDifference | AnalyticalSolution | EulerMethod}
 Zone Air Solution Algorithm, AnalyticalSolution
! <Zone Air Carbon Dioxide Balance Simulation>, Simulation {Yes/No}, Carbon Dioxide Concentration
 Zone Air Carbon Dioxide Balance Simulation, No,N/A
! <Zone Air Generic Contaminant Balance Simulation>, Simulation {Yes/No}, Generic Contaminant Concentration
 Zone Air Generic Contaminant Balance Simulation, No,N/A
! <Zone Air Mass Flow Balance Simulation>, Enforce Mass Balance, Adjust Zone Mixing, Adjust Zone Infiltration {AddInfiltration | AdjustInfiltration | None}, Infiltration Zones {MixingSourceZonesOnly | AllZones}
 Zone Air Mass Flow Balance Simulation, No,N/A,N/A,N/A
! <HVACSystemRootFindingAlgorithm>, Value {RegulaFalsi | Bisection | BisectionThenRegulaFalsi | RegulaFalsiThenBisection}
 HVACSystemRootFindingAlgorithm, RegulaFalsi
! <Environment:Site Atmospheric Variation>,Wind Speed Profile Exponent {},Wind Speed Profile Boundary Layer Thickness {m},Air Temperature Gradient Coefficient {K/m}
Environment:Site Atmospheric Variation,0.330,460.000,6.500000E-003
! <Surface Geometry>,Starting Corner,Vertex Input Direction,Coordinate System,Daylight Reference Point Coordinate System,Rectangular (Simple) Surface Coordinate System
 Surface Geometry,UpperLeftCorner,Counterclockwise,RelativeCoordinateSystem,RelativeCoordinateSystem,RelativeToZoneOrigin
! <Surface Heat Transfer Algorithm>, Value {CTF - ConductionTransferFunction | EMPD - MoisturePenetrationDepthConductionTransferFunction | CondFD - ConductionFiniteDifference | HAMT - CombinedHeatAndMoistureFiniteElement} - Description,Inside Surface Max Temperature Limit{C}, Surface Convection Coefficient Lower Limit {W/m2-K}, Surface Convection Coefficient Upper Limit {W/m2-K}
Surface Heat Transfer Algorithm, CTF - ConductionTransferFunction,200,0.10,1000.0
! <Shading Summary>, Number of Fixed Detached Shades, Number of Building Detached Shades, Number of Attached Shades
 Shading Summary,0,0,36
! <Zone Summary>, Number of Zones, Number of Zone Surfaces, Number of SubSurfaces
 Zone Summary,26,393,67
! <Zone Information>,Zone Name,North Axis {deg},Origin X-Coordinate {m},Origin Y-Coordinate {m},Origin Z-Coordinate {m},Centroid X-Coordinate {m},Centroid Y-Coordinate {m},Centroid Z-Coordinate {m},Type,Zone Multiplier,Zone List Multiplier,Minimum X {m},Maximum X {m},Minimum Y {m},Maximum Y {m},Minimum Z {m},Maximum Z {m},Ceiling Height {m},Volume {m3},Zone Inside Convection Algorithm {Simple-Detailed-CeilingDiffuser-TrombeWall},Zone Outside Convection Algorithm {Simple-Detailed-Tarp-MoWitt-DOE-2-BLAST}, Floor Area {m2},Exterior Gross Wall Area {m2},Exterior Net Wall Area {m2},Exterior Window Area {m2}, Number of Surfaces, Number of SubSurfaces, Number of Shading SubSurfaces,  Part of Total Building Area
 Zone Information, ALL_ST=AUDIENCE SEATING AREA PERMANENT - AUDITORIUM_FL=BUILDING STORY 1_SCH=C,0.0,79.00,75.00,0.00,98.00,88.00,4.00,1,1,1,79.00,117.00,75.00,101.00,0.00,8.00,8.00,7904.00,TARP,TARP,988.00,304.00,243.20,60.80,12,2,0,Yes
 Zone Information, ALL_ST=CLASSROOM/LECTURE HALL/TRAINING ROOM OTHER_FL=BUILDING STORY 1_SCH=D,0.0,0.00,0.00,0.00,5.50,44.83,2.00,1,1,1,0.00,11.00,0.00,90.00,0.00,4.00,4.00,1188.00,TARP,TARP,297.00,240.00,192.00,48.00,18,6,6,Yes
 Zone Information, ALL_ST=CLASSROOM/LECTURE HALL/TRAINING ROOM OTHER_FL=BUILDING STORY 1_SCH=D 1,0.0,11.00,14.00,0.00,37.50,58.83,2.00,1,1,1,11.00,64.00,14.00,104.00,0.00,4.00,4.00,5724.00,TARP,TARP,1431.00,636.00,508.80,127.20,18,3,0,Yes
 Zone Information, ALL_ST=CLASSROOM/LECTURE HALL/TRAINING ROOM OTHER_FL=BUILDING STORY 1_SCH=D 2,0.0,11.00,0.00,0.00,37.50,44.83,2.00,1,1,1,11.00,64.00,0.00,90.00,0.00,4.00,4.00,5724.00,TARP,TARP,1431.00,636.00,508.80,127.20,18,3,6,Yes
 Zone Information, ALL_ST=CLASSROOM/LECTURE HALL/TRAINING ROOM OTHER_FL=BUILDING STORY 1_SCH=D 3,0.0,0.00,14.00,0.00,5.50,58.83,2.00,1,1,1,0.00,11.00,14.00,104.00,0.00,4.00,4.00,1188.00,TARP,TARP,297.00,240.00,192.00,48.00,18,6,0,Yes
 Zone Information, ALL_ST=CLASSROOM/LECTURE HALL/TRAINING ROOM OTHER_FL=BUILDING STORY 2_SCH=D,0.0,0.00,14.00,4.00,5.50,58.83,6.00,1,1,1,0.00,11.00,14.00,104.00,4.00,8.00,4.00,1188.00,TARP,TARP,297.00,240.00,192.00,48.00,18,6,0,Yes
 Zone Information, ALL_ST=CLASSROOM/LECTURE HALL/TRAINING ROOM OTHER_FL=BUILDING STORY 2_SCH=D 1,0.0,11.00,0.00,4.00,37.50,44.83,6.00,1,1,1,11.00,64.00,0.00,90.00,4.00,8.00,4.00,5724.00,TARP,TARP,1431.00,636.00,508.80,127.20,18,3,6,Yes
 Zone Information, ALL_ST=CLASSROOM/LECTURE HALL/TRAINING ROOM OTHER_FL=BUILDING STORY 2_SCH=D 2,0.0,11.00,14.00,4.00,37.50,58.83,6.00,1,1,1,11.00,64.00,14.00,104.00,4.00,8.00,4.00,5724.00,TARP,TARP,1431.00,636.00,508.80,127.20,18,3,0,Yes
 Zone Information, ALL_ST=CLASSROOM/LECTURE HALL/TRAINING ROOM OTHER_FL=BUILDING STORY 2_SCH=D 3,0.0,0.00,0.00,4.00,5.50,44.83,6.00,1,1,1,0.00,11.00,0.00,90.00,4.00,8.00,4.00,1188.00,TARP,TARP,297.00,240.00,192.00,48.00,18,6,6,Yes
 Zone Information, ALL_ST=CONFERENCE/MEETING/MULTI-PURPOSE ROOM_FL=BUILDING STORY 1_SCH=C,0.0,117.00,75.00,0.00,129.00,88.00,2.00,1,1,1,117.00,141.00,75.00,101.00,0.00,4.00,4.00,2496.00,TARP,TARP,624.00,200.00,160.00,40.00,6,2,0,Yes
 Zone Information, ALL_ST=FOOD PREPARATION AREA_FL=BUILDING STORY 1_SCH=B,0.0,117.00,66.00,0.00,129.00,70.50,2.00,1,1,1,117.00,141.00,66.00,75.00,0.00,4.00,4.00,864.00,TARP,TARP,216.00,36.00,28.80,7.20,6,1,0,Yes
 Zone Information, ALL_ST=GYMNASIUM/FITNESS CENTRE PLAYING AREA_FL=BUILDING STORY 1_SCH=B,0.0,79.00,14.00,0.00,98.00,40.00,4.00,1,1,1,79.00,117.00,14.00,66.00,0.00,8.00,8.00,15808.00,TARP,TARP,1976.00,0.00,0.00,0.00,10,0,0,Yes
 Zone Information, ALL_ST=GYMNASIUM/FITNESS CENTRE PLAYING AREA_FL=BUILDING STORY 1_SCH=B 1,0.0,117.00,14.00,0.00,129.00,40.00,4.00,1,1,1,117.00,141.00,14.00,66.00,0.00,8.00,8.00,9984.00,TARP,TARP,1248.00,608.00,486.40,121.60,10,4,4,Yes
 Zone Information, ALL_ST=LIBRARY READING AREA_FL=BUILDING STORY 2_SCH=C,0.0,117.00,66.00,4.00,129.00,83.50,6.00,1,1,1,117.00,141.00,66.00,101.00,4.00,8.00,4.00,3360.00,TARP,TARP,840.00,236.00,188.80,47.20,8,2,0,Yes
 Zone Information, ALL_ST=LOBBY - OTHER_FL=BUILDING STORY 1_SCH=C,0.0,64.00,0.00,0.00,71.50,7.00,2.00,1,1,1,64.00,79.00,0.00,14.00,0.00,4.00,4.00,840.00,TARP,TARP,210.00,60.00,48.00,12.00,7,1,2,Yes
 Zone Information, ALL_ST=LOBBY - OTHER_FL=BUILDING STORY 2_SCH=C,0.0,64.00,0.00,4.00,71.50,7.00,6.00,1,1,1,64.00,79.00,0.00,14.00,4.00,8.00,4.00,840.00,TARP,TARP,210.00,60.00,48.00,12.00,7,1,2,Yes
 Zone Information, ALL_ST=OFFICE ENCLOSED <= 25 M2_FL=BUILDING STORY 1_SCH=A,0.0,79.00,0.00,0.00,98.00,7.00,2.00,1,1,1,79.00,117.00,0.00,14.00,0.00,4.00,4.00,2128.00,TARP,TARP,532.00,208.00,166.40,41.60,6,2,2,Yes
 Zone Information, ALL_ST=OFFICE ENCLOSED <= 25 M2_FL=BUILDING STORY 2_SCH=A,0.0,79.00,0.00,4.00,98.00,7.00,6.00,1,1,1,79.00,117.00,0.00,14.00,4.00,8.00,4.00,2128.00,TARP,TARP,532.00,208.00,166.40,41.60,6,2,2,Yes
 Zone Information, WET_ST=WASHROOM - OTHER-SCH-D_FL=BUILDING STORY 1_SCHD,0.0,64.00,90.00,0.00,71.50,97.00,2.00,1,1,1,64.00,79.00,90.00,104.00,0.00,4.00,4.00,840.00,TARP,TARP,210.00,72.00,57.60,14.40,8,2,0,Yes
 Zone Information, WET_ST=WASHROOM - OTHER-SCH-D_FL=BUILDING STORY 2_SCHD,0.0,64.00,90.00,4.00,71.50,97.00,6.00,1,1,1,64.00,79.00,90.00,104.00,4.00,8.00,4.00,840.00,TARP,TARP,210.00,72.00,57.60,14.40,8,2,0,Yes
 Zone Information, WILD_ST=CORRIDOR/TRANSITION AREA OTHER-SCH-D_FL=BUILDING STORY 1_SCH=D,0.0,64.00,14.00,0.00,71.50,52.00,2.00,1,1,1,64.00,79.00,14.00,90.00,0.00,4.00,4.00,4560.00,TARP,TARP,1140.00,140.00,112.00,28.00,14,2,0,Yes
 Zone Information, WILD_ST=CORRIDOR/TRANSITION AREA OTHER-SCH-D_FL=BUILDING STORY 1_SCH=D 1,0.0,0.00,9.00,0.00,32.00,51.83,2.00,1,1,1,0.00,64.00,9.00,95.00,0.00,4.00,4.00,3840.00,TARP,TARP,960.00,60.00,48.00,12.00,24,3,0,Yes
 Zone Information, WILD_ST=CORRIDOR/TRANSITION AREA OTHER-SCH-D_FL=BUILDING STORY 2_SCH=D,0.0,64.00,14.00,4.00,71.50,52.00,6.00,1,1,1,64.00,79.00,14.00,90.00,4.00,8.00,4.00,4560.00,TARP,TARP,1140.00,140.00,112.00,28.00,14,2,0,Yes
 Zone Information, WILD_ST=CORRIDOR/TRANSITION AREA OTHER-SCH-D_FL=BUILDING STORY 2_SCH=D 1,0.0,0.00,9.00,4.00,32.00,51.83,6.00,1,1,1,0.00,64.00,9.00,95.00,4.00,8.00,4.00,3840.00,TARP,TARP,960.00,60.00,48.00,12.00,24,3,0,Yes
 Zone Information, WILD_ST=ELECTRICAL/MECHANICAL ROOM-SCH-D_FL=BUILDING STORY 1_SCH=D,0.0,79.00,66.00,0.00,98.00,70.50,2.00,1,1,1,79.00,117.00,66.00,75.00,0.00,4.00,4.00,1368.00,TARP,TARP,342.00,0.00,0.00,0.00,6,0,0,Yes
 Zone Information, WILD_ST=ELECTRICAL/MECHANICAL ROOM-SCH-D_FL=BUILDING STORY 2_SCH=D,0.0,79.00,66.00,4.00,98.00,70.50,6.00,1,1,1,79.00,117.00,66.00,75.00,4.00,8.00,4.00,1368.00,TARP,TARP,342.00,0.00,0.00,0.00,6,0,0,Yes
! <Zone Internal Gains Nominal>,Zone Name, Floor Area {m2},# Occupants,Area per Occupant {m2/person},Occupant per Area {person/m2},Interior Lighting {W/m2},Electric Load {W/m2},Gas Load {W/m2},Other Load {W/m2},Hot Water Eq {W/m2},Steam Equipment {W/m2},Sum Loads per Area {W/m2},Outdoor Controlled Baseboard Heat
 Zone Internal Gains Nominal, ALL_ST=AUDIENCE SEATING AREA PERMANENT - AUDITORIUM_FL=BUILDING STORY 1_SCH=C,988.00,197.7,4.998,0.200,3.250,1.250,0.000,0.000,0.000,0.000,4.500,No
 Zone Internal Gains Nominal, ALL_ST=CLASSROOM/LECTURE HALL/TRAINING ROOM OTHER_FL=BUILDING STORY 1_SCH=D,297.00,39.6,7.497,0.133,3.800,2.501,0.000,0.000,0.000,0.000,6.301,No
 Zone Internal Gains Nominal, ALL_ST=CLASSROOM/LECTURE HALL/TRAINING ROOM OTHER_FL=BUILDING STORY 1_SCH=D 1,1431.00,190.9,7.497,0.133,3.800,2.501,0.000,0.000,0.000,0.000,6.301,No
 Zone Internal Gains Nominal, ALL_ST=CLASSROOM/LECTURE HALL/TRAINING ROOM OTHER_FL=BUILDING STORY 1_SCH=D 2,1431.00,190.9,7.497,0.133,3.800,2.501,0.000,0.000,0.000,0.000,6.301,No
 Zone Internal Gains Nominal, ALL_ST=CLASSROOM/LECTURE HALL/TRAINING ROOM OTHER_FL=BUILDING STORY 1_SCH=D 3,297.00,39.6,7.497,0.133,3.800,2.501,0.000,0.000,0.000,0.000,6.301,No
 Zone Internal Gains Nominal, ALL_ST=CLASSROOM/LECTURE HALL/TRAINING ROOM OTHER_FL=BUILDING STORY 2_SCH=D,297.00,39.6,7.497,0.133,3.800,2.501,0.000,0.000,0.000,0.000,6.301,No
 Zone Internal Gains Nominal, ALL_ST=CLASSROOM/LECTURE HALL/TRAINING ROOM OTHER_FL=BUILDING STORY 2_SCH=D 1,1431.00,190.9,7.497,0.133,3.800,2.501,0.000,0.000,0.000,0.000,6.301,No
 Zone Internal Gains Nominal, ALL_ST=CLASSROOM/LECTURE HALL/TRAINING ROOM OTHER_FL=BUILDING STORY 2_SCH=D 2,1431.00,190.9,7.497,0.133,3.800,2.501,0.000,0.000,0.000,0.000,6.301,No
 Zone Internal Gains Nominal, ALL_ST=CLASSROOM/LECTURE HALL/TRAINING ROOM OTHER_FL=BUILDING STORY 2_SCH=D 3,297.00,39.6,7.497,0.133,3.800,2.501,0.000,0.000,0.000,0.000,6.301,No
 Zone Internal Gains Nominal, ALL_ST=CONFERENCE/MEETING/MULTI-PURPOSE ROOM_FL=BUILDING STORY 1_SCH=C,624.00,124.8,4.998,0.200,5.250,0.500,0.000,0.000,0.000,0.000,5.750,No
 Zone Internal Gains Nominal, ALL_ST=FOOD PREPARATION AREA_FL=BUILDING STORY 1_SCH=B,216.00,10.8,19.993,5.002E-002,5.850,5.002,0.000,0.000,0.000,0.000,10.852,No
 Zone Internal Gains Nominal, ALL_ST=GYMNASIUM/FITNESS CENTRE PLAYING AREA_FL=BUILDING STORY 1_SCH=B,1976.00,395.3,4.998,0.200,4.600,0.750,0.000,0.000,0.000,0.000,5.350,No
 Zone Internal Gains Nominal, ALL_ST=GYMNASIUM/FITNESS CENTRE PLAYING AREA_FL=BUILDING STORY 1_SCH=B 1,1248.00,249.7,4.998,0.200,4.600,0.750,0.000,0.000,0.000,0.000,5.350,No
 Zone Internal Gains Nominal, ALL_ST=LIBRARY READING AREA_FL=BUILDING STORY 2_SCH=C,840.00,42.0,19.993,5.002E-002,5.150,0.500,0.000,0.000,0.000,0.000,5.650,No
 Zone Internal Gains Nominal, ALL_ST=LOBBY - OTHER_FL=BUILDING STORY 1_SCH=C,210.00,21.0,9.996,0.100,4.500,0.500,0.000,0.000,0.000,0.000,5.000,No
 Zone Internal Gains Nominal, ALL_ST=LOBBY - OTHER_FL=BUILDING STORY 2_SCH=C,210.00,21.0,9.996,0.100,4.500,0.500,0.000,0.000,0.000,0.000,5.000,No
 Zone Internal Gains Nominal, ALL_ST=OFFICE ENCLOSED <= 25 M2_FL=BUILDING STORY 1_SCH=A,532.00,26.6,19.993,5.002E-002,4.000,3.751,0.000,0.000,0.000,0.000,7.751,No
 Zone Internal Gains Nominal, ALL_ST=OFFICE ENCLOSED <= 25 M2_FL=BUILDING STORY 2_SCH=A,532.00,26.6,19.993,5.002E-002,4.000,3.751,0.000,0.000,0.000,0.000,7.751,No
 Zone Internal Gains Nominal, WET_ST=WASHROOM - OTHER-SCH-D_FL=BUILDING STORY 1_SCHD,210.00,7.0,29.989,3.335E-002,3.400,0.500,0.000,0.000,0.000,0.000,3.900,No
 Zone Internal Gains Nominal, WET_ST=WASHROOM - OTHER-SCH-D_FL=BUILDING STORY 2_SCHD,210.00,7.0,29.989,3.335E-002,3.400,0.500,0.000,0.000,0.000,0.000,3.900,No
 Zone Internal Gains Nominal, WILD_ST=CORRIDOR/TRANSITION AREA OTHER-SCH-D_FL=BUILDING STORY 1_SCH=D,1140.00,11.4,99.964,1.000E-002,2.200,0.000,0.000,0.000,0.000,0.000,2.200,No
 Zone Internal Gains Nominal, WILD_ST=CORRIDOR/TRANSITION AREA OTHER-SCH-D_FL=BUILDING STORY 1_SCH=D 1,960.00,9.6,99.964,1.000E-002,2.200,0.000,0.000,0.000,0.000,0.000,2.200,No
 Zone Internal Gains Nominal, WILD_ST=CORRIDOR/TRANSITION AREA OTHER-SCH-D_FL=BUILDING STORY 2_SCH=D,1140.00,11.4,99.964,1.000E-002,2.200,0.000,0.000,0.000,0.000,0.000,2.200,No
 Zone Internal Gains Nominal, WILD_ST=CORRIDOR/TRANSITION AREA OTHER-SCH-D_FL=BUILDING STORY 2_SCH=D 1,960.00,9.6,99.964,1.000E-002,2.200,0.000,0.000,0.000,0.000,0.000,2.200,No
 Zone Internal Gains Nominal, WILD_ST=ELECTRICAL/MECHANICAL ROOM-SCH-D_FL=BUILDING STORY 1_SCH=D,342.00,1.7,199.927,5.002E-003,2.330,0.500,0.000,0.000,0.000,0.000,2.830,No
 Zone Internal Gains Nominal, WILD_ST=ELECTRICAL/MECHANICAL ROOM-SCH-D_FL=BUILDING STORY 2_SCH=D,342.00,1.7,199.927,5.002E-003,2.330,0.500,0.000,0.000,0.000,0.000,2.830,No
! <People Internal Gains Nominal>,Name,Schedule Name,Zone Name,Zone Floor Area {m2},# Zone Occupants,Number of People {},People/Floor Area {person/m2},Floor Area per person {m2/person},Fraction Radiant,Fraction Convected,Sensible Fraction Calculation,Activity level,ASHRAE 55 Warnings,Carbon Dioxide Generation Rate,Nominal Minimum Number of People,Nominal Maximum Number of People
 People Internal Gains Nominal, ALL_ST=AUDIENCE SEATING AREA PERMANENT - AUDITORIUM_FL=BUILDING STORY 1_SCH=C SPACE FUNCTION AUDIENCE SEATING AREA PERMANENT - AUDITORIUM PEOPLE,NECB-C-OCCUPANCY,ALL_ST=AUDIENCE SEATING AREA PERMANENT - AUDITORIUM_FL=BUILDING STORY 1_SCH=C,988.00,197.7,197.7,0.200,4.998,0.300,0.700,AutoCalculate,NECB-ACTIVITY,No,3.8200E-008,0,178
 People Internal Gains Nominal, ALL_ST=CLASSROOM/LECTURE HALL/TRAINING ROOM OTHER_FL=BUILDING STORY 1_SCH=D SPACE FUNCTION CLASSROOM/LECTURE HALL/TRAINING ROOM OTHER PEOPLE,NECB-D-OCCUPANCY,ALL_ST=CLASSROOM/LECTURE HALL/TRAINING ROOM OTHER_FL=BUILDING STORY 1_SCH=D,297.00,39.6,39.6,0.133,7.497,0.300,0.700,AutoCalculate,NECB-ACTIVITY,No,3.8200E-008,0,36
 People Internal Gains Nominal, ALL_ST=CLASSROOM/LECTURE HALL/TRAINING ROOM OTHER_FL=BUILDING STORY 1_SCH=D 1 SPACE FUNCTION CLASSROOM/LECTURE HALL/TRAINING ROOM OTHER PEOPLE,NECB-D-OCCUPANCY,ALL_ST=CLASSROOM/LECTURE HALL/TRAINING ROOM OTHER_FL=BUILDING STORY 1_SCH=D 1,1431.00,190.9,190.9,0.133,7.497,0.300,0.700,AutoCalculate,NECB-ACTIVITY,No,3.8200E-008,0,172
 People Internal Gains Nominal, ALL_ST=CLASSROOM/LECTURE HALL/TRAINING ROOM OTHER_FL=BUILDING STORY 1_SCH=D 2 SPACE FUNCTION CLASSROOM/LECTURE HALL/TRAINING ROOM OTHER PEOPLE,NECB-D-OCCUPANCY,ALL_ST=CLASSROOM/LECTURE HALL/TRAINING ROOM OTHER_FL=BUILDING STORY 1_SCH=D 2,1431.00,190.9,190.9,0.133,7.497,0.300,0.700,AutoCalculate,NECB-ACTIVITY,No,3.8200E-008,0,172
 People Internal Gains Nominal, ALL_ST=CLASSROOM/LECTURE HALL/TRAINING ROOM OTHER_FL=BUILDING STORY 1_SCH=D 3 SPACE FUNCTION CLASSROOM/LECTURE HALL/TRAINING ROOM OTHER PEOPLE,NECB-D-OCCUPANCY,ALL_ST=CLASSROOM/LECTURE HALL/TRAINING ROOM OTHER_FL=BUILDING STORY 1_SCH=D 3,297.00,39.6,39.6,0.133,7.497,0.300,0.700,AutoCalculate,NECB-ACTIVITY,No,3.8200E-008,0,36
 People Internal Gains Nominal, ALL_ST=CLASSROOM/LECTURE HALL/TRAINING ROOM OTHER_FL=BUILDING STORY 2_SCH=D SPACE FUNCTION CLASSROOM/LECTURE HALL/TRAINING ROOM OTHER PEOPLE,NECB-D-OCCUPANCY,ALL_ST=CLASSROOM/LECTURE HALL/TRAINING ROOM OTHER_FL=BUILDING STORY 2_SCH=D,297.00,39.6,39.6,0.133,7.497,0.300,0.700,AutoCalculate,NECB-ACTIVITY,No,3.8200E-008,0,36
 People Internal Gains Nominal, ALL_ST=CLASSROOM/LECTURE HALL/TRAINING ROOM OTHER_FL=BUILDING STORY 2_SCH=D 1 SPACE FUNCTION CLASSROOM/LECTURE HALL/TRAINING ROOM OTHER PEOPLE,NECB-D-OCCUPANCY,ALL_ST=CLASSROOM/LECTURE HALL/TRAINING ROOM OTHER_FL=BUILDING STORY 2_SCH=D 1,1431.00,190.9,190.9,0.133,7.497,0.300,0.700,AutoCalculate,NECB-ACTIVITY,No,3.8200E-008,0,172
 People Internal Gains Nominal, ALL_ST=CLASSROOM/LECTURE HALL/TRAINING ROOM OTHER_FL=BUILDING STORY 2_SCH=D 2 SPACE FUNCTION CLASSROOM/LECTURE HALL/TRAINING ROOM OTHER PEOPLE,NECB-D-OCCUPANCY,ALL_ST=CLASSROOM/LECTURE HALL/TRAINING ROOM OTHER_FL=BUILDING STORY 2_SCH=D 2,1431.00,190.9,190.9,0.133,7.497,0.300,0.700,AutoCalculate,NECB-ACTIVITY,No,3.8200E-008,0,172
 People Internal Gains Nominal, ALL_ST=CLASSROOM/LECTURE HALL/TRAINING ROOM OTHER_FL=BUILDING STORY 2_SCH=D 3 SPACE FUNCTION CLASSROOM/LECTURE HALL/TRAINING ROOM OTHER PEOPLE,NECB-D-OCCUPANCY,ALL_ST=CLASSROOM/LECTURE HALL/TRAINING ROOM OTHER_FL=BUILDING STORY 2_SCH=D 3,297.00,39.6,39.6,0.133,7.497,0.300,0.700,AutoCalculate,NECB-ACTIVITY,No,3.8200E-008,0,36
 People Internal Gains Nominal, ALL_ST=CONFERENCE/MEETING/MULTI-PURPOSE ROOM_FL=BUILDING STORY 1_SCH=C SPACE FUNCTION CONFERENCE/MEETING/MULTI-PURPOSE ROOM PEOPLE,NECB-C-OCCUPANCY,ALL_ST=CONFERENCE/MEETING/MULTI-PURPOSE ROOM_FL=BUILDING STORY 1_SCH=C,624.00,124.8,124.8,0.200,4.998,0.300,0.700,AutoCalculate,NECB-ACTIVITY,No,3.8200E-008,0,112
 People Internal Gains Nominal, WILD_ST=CORRIDOR/TRANSITION AREA OTHER-SCH-D_FL=BUILDING STORY 1_SCH=D SPACE FUNCTION CORRIDOR/TRANSITION AREA OTHER-SCH-D PEOPLE,NECB-D-OCCUPANCY,WILD_ST=CORRIDOR/TRANSITION AREA OTHER-SCH-D_FL=BUILDING STORY 1_SCH=D,1140.00,11.4,11.4,1.000E-002,99.964,0.300,0.700,AutoCalculate,NECB-ACTIVITY,No,3.8200E-008,0,10
 People Internal Gains Nominal, WILD_ST=CORRIDOR/TRANSITION AREA OTHER-SCH-D_FL=BUILDING STORY 1_SCH=D 1 SPACE FUNCTION CORRIDOR/TRANSITION AREA OTHER-SCH-D PEOPLE,NECB-D-OCCUPANCY,WILD_ST=CORRIDOR/TRANSITION AREA OTHER-SCH-D_FL=BUILDING STORY 1_SCH=D 1,960.00,9.6,9.6,1.000E-002,99.964,0.300,0.700,AutoCalculate,NECB-ACTIVITY,No,3.8200E-008,0,9
 People Internal Gains Nominal, WILD_ST=CORRIDOR/TRANSITION AREA OTHER-SCH-D_FL=BUILDING STORY 2_SCH=D SPACE FUNCTION CORRIDOR/TRANSITION AREA OTHER-SCH-D PEOPLE,NECB-D-OCCUPANCY,WILD_ST=CORRIDOR/TRANSITION AREA OTHER-SCH-D_FL=BUILDING STORY 2_SCH=D,1140.00,11.4,11.4,1.000E-002,99.964,0.300,0.700,AutoCalculate,NECB-ACTIVITY,No,3.8200E-008,0,10
 People Internal Gains Nominal, WILD_ST=CORRIDOR/TRANSITION AREA OTHER-SCH-D_FL=BUILDING STORY 2_SCH=D 1 SPACE FUNCTION CORRIDOR/TRANSITION AREA OTHER-SCH-D PEOPLE,NECB-D-OCCUPANCY,WILD_ST=CORRIDOR/TRANSITION AREA OTHER-SCH-D_FL=BUILDING STORY 2_SCH=D 1,960.00,9.6,9.6,1.000E-002,99.964,0.300,0.700,AutoCalculate,NECB-ACTIVITY,No,3.8200E-008,0,9
 People Internal Gains Nominal, WILD_ST=ELECTRICAL/MECHANICAL ROOM-SCH-D_FL=BUILDING STORY 1_SCH=D SPACE FUNCTION ELECTRICAL/MECHANICAL ROOM-SCH-D PEOPLE,NECB-D-OCCUPANCY,WILD_ST=ELECTRICAL/MECHANICAL ROOM-SCH-D_FL=BUILDING STORY 1_SCH=D,342.00,1.7,1.7,5.002E-003,199.927,0.300,0.700,AutoCalculate,NECB-ACTIVITY,No,3.8200E-008,0,2
 People Internal Gains Nominal, WILD_ST=ELECTRICAL/MECHANICAL ROOM-SCH-D_FL=BUILDING STORY 2_SCH=D SPACE FUNCTION ELECTRICAL/MECHANICAL ROOM-SCH-D PEOPLE,NECB-D-OCCUPANCY,WILD_ST=ELECTRICAL/MECHANICAL ROOM-SCH-D_FL=BUILDING STORY 2_SCH=D,342.00,1.7,1.7,5.002E-003,199.927,0.300,0.700,AutoCalculate,NECB-ACTIVITY,No,3.8200E-008,0,2
 People Internal Gains Nominal, ALL_ST=FOOD PREPARATION AREA_FL=BUILDING STORY 1_SCH=B SPACE FUNCTION FOOD PREPARATION AREA PEOPLE,NECB-B-OCCUPANCY,ALL_ST=FOOD PREPARATION AREA_FL=BUILDING STORY 1_SCH=B,216.00,10.8,10.8,5.002E-002,19.993,0.300,0.700,AutoCalculate,NECB-ACTIVITY,No,3.8200E-008,0,10
 People Internal Gains Nominal, ALL_ST=GYMNASIUM/FITNESS CENTRE PLAYING AREA_FL=BUILDING STORY 1_SCH=B SPACE FUNCTION GYMNASIUM/FITNESS CENTRE PLAYING AREA PEOPLE,NECB-B-OCCUPANCY,ALL_ST=GYMNASIUM/FITNESS CENTRE PLAYING AREA_FL=BUILDING STORY 1_SCH=B,1976.00,395.3,395.3,0.200,4.998,0.300,0.700,AutoCalculate,NECB-ACTIVITY,No,3.8200E-008,0,356
 People Internal Gains Nominal, ALL_ST=GYMNASIUM/FITNESS CENTRE PLAYING AREA_FL=BUILDING STORY 1_SCH=B 1 SPACE FUNCTION GYMNASIUM/FITNESS CENTRE PLAYING AREA PEOPLE,NECB-B-OCCUPANCY,ALL_ST=GYMNASIUM/FITNESS CENTRE PLAYING AREA_FL=BUILDING STORY 1_SCH=B 1,1248.00,249.7,249.7,0.200,4.998,0.300,0.700,AutoCalculate,NECB-ACTIVITY,No,3.8200E-008,0,225
 People Internal Gains Nominal, ALL_ST=LIBRARY READING AREA_FL=BUILDING STORY 2_SCH=C SPACE FUNCTION LIBRARY READING AREA PEOPLE,NECB-C-OCCUPANCY,ALL_ST=LIBRARY READING AREA_FL=BUILDING STORY 2_SCH=C,840.00,42.0,42.0,5.002E-002,19.993,0.300,0.700,AutoCalculate,NECB-ACTIVITY,No,3.8200E-008,0,38
 People Internal Gains Nominal, ALL_ST=LOBBY - OTHER_FL=BUILDING STORY 1_SCH=C SPACE FUNCTION LOBBY - OTHER PEOPLE,NECB-C-OCCUPANCY,ALL_ST=LOBBY - OTHER_FL=BUILDING STORY 1_SCH=C,210.00,21.0,21.0,0.100,9.996,0.300,0.700,AutoCalculate,NECB-ACTIVITY,No,3.8200E-008,0,19
 People Internal Gains Nominal, ALL_ST=LOBBY - OTHER_FL=BUILDING STORY 2_SCH=C SPACE FUNCTION LOBBY - OTHER PEOPLE,NECB-C-OCCUPANCY,ALL_ST=LOBBY - OTHER_FL=BUILDING STORY 2_SCH=C,210.00,21.0,21.0,0.100,9.996,0.300,0.700,AutoCalculate,NECB-ACTIVITY,No,3.8200E-008,0,19
 People Internal Gains Nominal, ALL_ST=OFFICE ENCLOSED <= 25 M2_FL=BUILDING STORY 1_SCH=A SPACE FUNCTION OFFICE ENCLOSED <= 25 M2 PEOPLE,NECB-A-OCCUPANCY,ALL_ST=OFFICE ENCLOSED <= 25 M2_FL=BUILDING STORY 1_SCH=A,532.00,26.6,26.6,5.002E-002,19.993,0.300,0.700,AutoCalculate,NECB-ACTIVITY,No,3.8200E-008,0,24
 People Internal Gains Nominal, ALL_ST=OFFICE ENCLOSED <= 25 M2_FL=BUILDING STORY 2_SCH=A SPACE FUNCTION OFFICE ENCLOSED <= 25 M2 PEOPLE,NECB-A-OCCUPANCY,ALL_ST=OFFICE ENCLOSED <= 25 M2_FL=BUILDING STORY 2_SCH=A,532.00,26.6,26.6,5.002E-002,19.993,0.300,0.700,AutoCalculate,NECB-ACTIVITY,No,3.8200E-008,0,24
 People Internal Gains Nominal, WET_ST=WASHROOM - OTHER-SCH-D_FL=BUILDING STORY 1_SCHD SPACE FUNCTION WASHROOM - OTHER-SCH-D PEOPLE,NECB-D-OCCUPANCY,WET_ST=WASHROOM - OTHER-SCH-D_FL=BUILDING STORY 1_SCHD,210.00,7.0,7.0,3.335E-002,29.989,0.300,0.700,AutoCalculate,NECB-ACTIVITY,No,3.8200E-008,0,6
 People Internal Gains Nominal, WET_ST=WASHROOM - OTHER-SCH-D_FL=BUILDING STORY 2_SCHD SPACE FUNCTION WASHROOM - OTHER-SCH-D PEOPLE,NECB-D-OCCUPANCY,WET_ST=WASHROOM - OTHER-SCH-D_FL=BUILDING STORY 2_SCHD,210.00,7.0,7.0,3.335E-002,29.989,0.300,0.700,AutoCalculate,NECB-ACTIVITY,No,3.8200E-008,0,6
! <Lights Internal Gains Nominal>,Name,Schedule Name,Zone Name,Zone Floor Area {m2},# Zone Occupants,Lighting Level {W},Lights/Floor Area {W/m2},Lights per person {W/person},Fraction Return Air,Fraction Radiant,Fraction Short Wave,Fraction Convected,Fraction Replaceable,End-Use Category,Nominal Minimum Lighting Level {W},Nominal Maximum Lighting Level {W}
 Lights Internal Gains Nominal, ALL_ST=AUDIENCE SEATING AREA PERMANENT - AUDITORIUM_FL=BUILDING STORY 1_SCH=C SPACE FUNCTION AUDIENCE SEATING AREA PERMANENT - AUDITORIUM LIGHTS 85.0 PERCENT REDUCTION,NECB-C-LIGHTING,ALL_ST=AUDIENCE SEATING AREA PERMANENT - AUDITORIUM_FL=BUILDING STORY 1_SCH=C,988.00,197.7,3211.000,3.250,16.244,0.000,0.500,0.200,0.300,1.000,General,160.550,2889.900
 Lights Internal Gains Nominal, ALL_ST=CLASSROOM/LECTURE HALL/TRAINING ROOM OTHER_FL=BUILDING STORY 1_SCH=D SPACE FUNCTION CLASSROOM/LECTURE HALL/TRAINING ROOM OTHER LIGHTS 85.0 PERCENT REDUCTION,NECB-D-OCCUPANCY-NECB-D-LIGHTING-0.5-0.0-0.67-LIGHT RULESET,ALL_ST=CLASSROOM/LECTURE HALL/TRAINING ROOM OTHER_FL=BUILDING STORY 1_SCH=D,297.00,39.6,1128.600,3.800,28.490,0.000,0.500,0.200,0.300,1.000,General,37.526,1015.740
 Lights Internal Gains Nominal, ALL_ST=CLASSROOM/LECTURE HALL/TRAINING ROOM OTHER_FL=BUILDING STORY 1_SCH=D 1 SPACE FUNCTION CLASSROOM/LECTURE HALL/TRAINING ROOM OTHER LIGHTS 85.0 PERCENT REDUCTION,NECB-D-OCCUPANCY-NECB-D-LIGHTING-0.5-0.0-0.67-LIGHT RULESET,ALL_ST=CLASSROOM/LECTURE HALL/TRAINING ROOM OTHER_FL=BUILDING STORY 1_SCH=D 1,1431.00,190.9,5437.800,3.800,28.490,0.000,0.500,0.200,0.300,1.000,General,180.807,4894.020
 Lights Internal Gains Nominal, ALL_ST=CLASSROOM/LECTURE HALL/TRAINING ROOM OTHER_FL=BUILDING STORY 1_SCH=D 2 SPACE FUNCTION CLASSROOM/LECTURE HALL/TRAINING ROOM OTHER LIGHTS 85.0 PERCENT REDUCTION,NECB-D-OCCUPANCY-NECB-D-LIGHTING-0.5-0.0-0.67-LIGHT RULESET,ALL_ST=CLASSROOM/LECTURE HALL/TRAINING ROOM OTHER_FL=BUILDING STORY 1_SCH=D 2,1431.00,190.9,5437.800,3.800,28.490,0.000,0.500,0.200,0.300,1.000,General,180.807,4894.020
 Lights Internal Gains Nominal, ALL_ST=CLASSROOM/LECTURE HALL/TRAINING ROOM OTHER_FL=BUILDING STORY 1_SCH=D 3 SPACE FUNCTION CLASSROOM/LECTURE HALL/TRAINING ROOM OTHER LIGHTS 85.0 PERCENT REDUCTION,NECB-D-OCCUPANCY-NECB-D-LIGHTING-0.5-0.0-0.67-LIGHT RULESET,ALL_ST=CLASSROOM/LECTURE HALL/TRAINING ROOM OTHER_FL=BUILDING STORY 1_SCH=D 3,297.00,39.6,1128.600,3.800,28.490,0.000,0.500,0.200,0.300,1.000,General,37.526,1015.740
 Lights Internal Gains Nominal, ALL_ST=CLASSROOM/LECTURE HALL/TRAINING ROOM OTHER_FL=BUILDING STORY 2_SCH=D SPACE FUNCTION CLASSROOM/LECTURE HALL/TRAINING ROOM OTHER LIGHTS 85.0 PERCENT REDUCTION,NECB-D-OCCUPANCY-NECB-D-LIGHTING-0.5-0.0-0.67-LIGHT RULESET,ALL_ST=CLASSROOM/LECTURE HALL/TRAINING ROOM OTHER_FL=BUILDING STORY 2_SCH=D,297.00,39.6,1128.600,3.800,28.490,0.000,0.500,0.200,0.300,1.000,General,37.526,1015.740
 Lights Internal Gains Nominal, ALL_ST=CLASSROOM/LECTURE HALL/TRAINING ROOM OTHER_FL=BUILDING STORY 2_SCH=D 1 SPACE FUNCTION CLASSROOM/LECTURE HALL/TRAINING ROOM OTHER LIGHTS 85.0 PERCENT REDUCTION,NECB-D-OCCUPANCY-NECB-D-LIGHTING-0.5-0.0-0.67-LIGHT RULESET,ALL_ST=CLASSROOM/LECTURE HALL/TRAINING ROOM OTHER_FL=BUILDING STORY 2_SCH=D 1,1431.00,190.9,5437.800,3.800,28.490,0.000,0.500,0.200,0.300,1.000,General,180.807,4894.020
 Lights Internal Gains Nominal, ALL_ST=CLASSROOM/LECTURE HALL/TRAINING ROOM OTHER_FL=BUILDING STORY 2_SCH=D 2 SPACE FUNCTION CLASSROOM/LECTURE HALL/TRAINING ROOM OTHER LIGHTS 85.0 PERCENT REDUCTION,NECB-D-OCCUPANCY-NECB-D-LIGHTING-0.5-0.0-0.67-LIGHT RULESET,ALL_ST=CLASSROOM/LECTURE HALL/TRAINING ROOM OTHER_FL=BUILDING STORY 2_SCH=D 2,1431.00,190.9,5437.800,3.800,28.490,0.000,0.500,0.200,0.300,1.000,General,180.807,4894.020
 Lights Internal Gains Nominal, ALL_ST=CLASSROOM/LECTURE HALL/TRAINING ROOM OTHER_FL=BUILDING STORY 2_SCH=D 3 SPACE FUNCTION CLASSROOM/LECTURE HALL/TRAINING ROOM OTHER LIGHTS 85.0 PERCENT REDUCTION,NECB-D-OCCUPANCY-NECB-D-LIGHTING-0.5-0.0-0.67-LIGHT RULESET,ALL_ST=CLASSROOM/LECTURE HALL/TRAINING ROOM OTHER_FL=BUILDING STORY 2_SCH=D 3,297.00,39.6,1128.600,3.800,28.490,0.000,0.500,0.200,0.300,1.000,General,37.526,1015.740
 Lights Internal Gains Nominal, ALL_ST=CONFERENCE/MEETING/MULTI-PURPOSE ROOM_FL=BUILDING STORY 1_SCH=C SPACE FUNCTION CONFERENCE/MEETING/MULTI-PURPOSE ROOM LIGHTS 85.0 PERCENT REDUCTION,NECB-C-OCCUPANCY-NECB-C-LIGHTING-0.5-0.0-0.67-LIGHT RULESET,ALL_ST=CONFERENCE/MEETING/MULTI-PURPOSE ROOM_FL=BUILDING STORY 1_SCH=C,624.00,124.8,3276.000,5.250,26.240,0.000,0.500,0.200,0.300,1.000,General,108.927,2948.400
 Lights Internal Gains Nominal, WILD_ST=CORRIDOR/TRANSITION AREA OTHER-SCH-D_FL=BUILDING STORY 1_SCH=D SPACE FUNCTION CORRIDOR/TRANSITION AREA OTHER-SCH-D LIGHTS 85.0 PERCENT REDUCTION,NECB-D-LIGHTING,WILD_ST=CORRIDOR/TRANSITION AREA OTHER-SCH-D_FL=BUILDING STORY 1_SCH=D,1140.00,11.4,2508.000,2.200,219.920,0.000,0.500,0.200,0.300,1.000,General,125.400,2257.200
 Lights Internal Gains Nominal, WILD_ST=CORRIDOR/TRANSITION AREA OTHER-SCH-D_FL=BUILDING STORY 1_SCH=D 1 SPACE FUNCTION CORRIDOR/TRANSITION AREA OTHER-SCH-D LIGHTS 85.0 PERCENT REDUCTION,NECB-D-LIGHTING,WILD_ST=CORRIDOR/TRANSITION AREA OTHER-SCH-D_FL=BUILDING STORY 1_SCH=D 1,960.00,9.6,2112.000,2.200,219.920,0.000,0.500,0.200,0.300,1.000,General,105.600,1900.800
 Lights Internal Gains Nominal, WILD_ST=CORRIDOR/TRANSITION AREA OTHER-SCH-D_FL=BUILDING STORY 2_SCH=D SPACE FUNCTION CORRIDOR/TRANSITION AREA OTHER-SCH-D LIGHTS 85.0 PERCENT REDUCTION,NECB-D-LIGHTING,WILD_ST=CORRIDOR/TRANSITION AREA OTHER-SCH-D_FL=BUILDING STORY 2_SCH=D,1140.00,11.4,2508.000,2.200,219.920,0.000,0.500,0.200,0.300,1.000,General,125.400,2257.200
 Lights Internal Gains Nominal, WILD_ST=CORRIDOR/TRANSITION AREA OTHER-SCH-D_FL=BUILDING STORY 2_SCH=D 1 SPACE FUNCTION CORRIDOR/TRANSITION AREA OTHER-SCH-D LIGHTS 85.0 PERCENT REDUCTION,NECB-D-LIGHTING,WILD_ST=CORRIDOR/TRANSITION AREA OTHER-SCH-D_FL=BUILDING STORY 2_SCH=D 1,960.00,9.6,2112.000,2.200,219.920,0.000,0.500,0.200,0.300,1.000,General,105.600,1900.800
 Lights Internal Gains Nominal, WILD_ST=ELECTRICAL/MECHANICAL ROOM-SCH-D_FL=BUILDING STORY 1_SCH=D SPACE FUNCTION ELECTRICAL/MECHANICAL ROOM-SCH-D LIGHTS 85.0 PERCENT REDUCTION,NECB-D-LIGHTING,WILD_ST=ELECTRICAL/MECHANICAL ROOM-SCH-D_FL=BUILDING STORY 1_SCH=D,342.00,1.7,796.860,2.330,465.831,0.000,0.500,0.200,0.300,1.000,General,39.843,717.174
 Lights Internal Gains Nominal, WILD_ST=ELECTRICAL/MECHANICAL ROOM-SCH-D_FL=BUILDING STORY 2_SCH=D SPACE FUNCTION ELECTRICAL/MECHANICAL ROOM-SCH-D LIGHTS 85.0 PERCENT REDUCTION,NECB-D-LIGHTING,WILD_ST=ELECTRICAL/MECHANICAL ROOM-SCH-D_FL=BUILDING STORY 2_SCH=D,342.00,1.7,796.860,2.330,465.831,0.000,0.500,0.200,0.300,1.000,General,39.843,717.174
 Lights Internal Gains Nominal, ALL_ST=FOOD PREPARATION AREA_FL=BUILDING STORY 1_SCH=B SPACE FUNCTION FOOD PREPARATION AREA LIGHTS 85.0 PERCENT REDUCTION,NECB-B-OCCUPANCY-NECB-B-LIGHTING-0.0-0.0-0.67-LIGHT RULESET,ALL_ST=FOOD PREPARATION AREA_FL=BUILDING STORY 1_SCH=B,216.00,10.8,1263.600,5.850,116.957,0.000,0.500,0.200,0.300,1.000,General,126.360,1137.240
 Lights Internal Gains Nominal, ALL_ST=GYMNASIUM/FITNESS CENTRE PLAYING AREA_FL=BUILDING STORY 1_SCH=B SPACE FUNCTION GYMNASIUM/FITNESS CENTRE PLAYING AREA LIGHTS 85.0 PERCENT REDUCTION,NECB-B-OCCUPANCY-NECB-B-LIGHTING-0.0-0.0-0.67-LIGHT RULESET,ALL_ST=GYMNASIUM/FITNESS CENTRE PLAYING AREA_FL=BUILDING STORY 1_SCH=B,1976.00,395.3,9089.600,4.600,22.992,0.000,0.500,0.200,0.300,1.000,General,908.960,8180.640
 Lights Internal Gains Nominal, ALL_ST=GYMNASIUM/FITNESS CENTRE PLAYING AREA_FL=BUILDING STORY 1_SCH=B 1 SPACE FUNCTION GYMNASIUM/FITNESS CENTRE PLAYING AREA LIGHTS 85.0 PERCENT REDUCTION,NECB-B-OCCUPANCY-NECB-B-LIGHTING-0.0-0.0-0.67-LIGHT RULESET,ALL_ST=GYMNASIUM/FITNESS CENTRE PLAYING AREA_FL=BUILDING STORY 1_SCH=B 1,1248.00,249.7,5740.800,4.600,22.992,0.000,0.500,0.200,0.300,1.000,General,574.080,5166.720
 Lights Internal Gains Nominal, ALL_ST=LIBRARY READING AREA_FL=BUILDING STORY 2_SCH=C SPACE FUNCTION LIBRARY READING AREA LIGHTS 85.0 PERCENT REDUCTION,NECB-C-OCCUPANCY-NECB-C-LIGHTING-0.0-0.0-0.67-LIGHT RULESET,ALL_ST=LIBRARY READING AREA_FL=BUILDING STORY 2_SCH=C,840.00,42.0,4326.000,5.150,102.963,0.000,0.500,0.200,0.300,1.000,General,216.300,3893.400
 Lights Internal Gains Nominal, ALL_ST=LOBBY - OTHER_FL=BUILDING STORY 1_SCH=C SPACE FUNCTION LOBBY - OTHER LIGHTS 85.0 PERCENT REDUCTION,NECB-C-OCCUPANCY-NECB-C-LIGHTING-0.0-0.0-0.67-LIGHT RULESET,ALL_ST=LOBBY - OTHER_FL=BUILDING STORY 1_SCH=C,210.00,21.0,945.000,4.500,44.984,0.000,0.500,0.200,0.300,1.000,General,47.250,850.500
 Lights Internal Gains Nominal, ALL_ST=LOBBY - OTHER_FL=BUILDING STORY 2_SCH=C SPACE FUNCTION LOBBY - OTHER LIGHTS 85.0 PERCENT REDUCTION,NECB-C-OCCUPANCY-NECB-C-LIGHTING-0.0-0.0-0.67-LIGHT RULESET,ALL_ST=LOBBY - OTHER_FL=BUILDING STORY 2_SCH=C,210.00,21.0,945.000,4.500,44.984,0.000,0.500,0.200,0.300,1.000,General,47.250,850.500
 Lights Internal Gains Nominal, ALL_ST=OFFICE ENCLOSED <= 25 M2_FL=BUILDING STORY 1_SCH=A SPACE FUNCTION OFFICE ENCLOSED <= 25 M2 LIGHTS 85.0 PERCENT REDUCTION,NECB-A-OCCUPANCY-NECB-A-LIGHTING-0.3-0.1-0.67-LIGHT RULESET,ALL_ST=OFFICE ENCLOSED <= 25 M2_FL=BUILDING STORY 1_SCH=A,532.00,26.6,2128.000,4.000,79.971,0.000,0.500,0.200,0.300,1.000,General,74.374,1915.200
 Lights Internal Gains Nominal, ALL_ST=OFFICE ENCLOSED <= 25 M2_FL=BUILDING STORY 2_SCH=A SPACE FUNCTION OFFICE ENCLOSED <= 25 M2 LIGHTS 85.0 PERCENT REDUCTION,NECB-A-OCCUPANCY-NECB-A-LIGHTING-0.3-0.1-0.67-LIGHT RULESET,ALL_ST=OFFICE ENCLOSED <= 25 M2_FL=BUILDING STORY 2_SCH=A,532.00,26.6,2128.000,4.000,79.971,0.000,0.500,0.200,0.300,1.000,General,74.374,1915.200
 Lights Internal Gains Nominal, WET_ST=WASHROOM - OTHER-SCH-D_FL=BUILDING STORY 1_SCHD SPACE FUNCTION WASHROOM - OTHER-SCH-D LIGHTS 85.0 PERCENT REDUCTION,NECB-D-OCCUPANCY-NECB-D-LIGHTING-0.5-0.0-0.67-LIGHT RULESET,WET_ST=WASHROOM - OTHER-SCH-D_FL=BUILDING STORY 1_SCHD,210.00,7.0,714.000,3.400,101.963,0.000,0.500,0.200,0.300,1.000,General,23.741,642.600
 Lights Internal Gains Nominal, WET_ST=WASHROOM - OTHER-SCH-D_FL=BUILDING STORY 2_SCHD SPACE FUNCTION WASHROOM - OTHER-SCH-D LIGHTS 85.0 PERCENT REDUCTION,NECB-D-OCCUPANCY-NECB-D-LIGHTING-0.5-0.0-0.67-LIGHT RULESET,WET_ST=WASHROOM - OTHER-SCH-D_FL=BUILDING STORY 2_SCHD,210.00,7.0,714.000,3.400,101.963,0.000,0.500,0.200,0.300,1.000,General,23.741,642.600
! <ElectricEquipment Internal Gains Nominal>,Name,Schedule Name,Zone Name,Zone Floor Area {m2},# Zone Occupants,Equipment Level {W},Equipment/Floor Area {W/m2},Equipment per person {W/person},Fraction Latent,Fraction Radiant,Fraction Lost,Fraction Convected,End-Use SubCategory,Nominal Minimum Equipment Level {W},Nominal Maximum Equipment Level {W}
 ElectricEquipment Internal Gains Nominal, ALL_ST=AUDIENCE SEATING AREA PERMANENT - AUDITORIUM_FL=BUILDING STORY 1_SCH=C SPACE FUNCTION AUDIENCE SEATING AREA PERMANENT - AUDITORIUM ELEC EQUIP 50.0 PERCENT REDUCTION,NECB-C-ELECTRIC-EQUIPMENT,ALL_ST=AUDIENCE SEATING AREA PERMANENT - AUDITORIUM_FL=BUILDING STORY 1_SCH=C,988.00,197.7,1235.449,1.250,6.250,0.000,0.500,0.000,0.500,General,61.772,1111.904
 ElectricEquipment Internal Gains Nominal, ALL_ST=CLASSROOM/LECTURE HALL/TRAINING ROOM OTHER_FL=BUILDING STORY 1_SCH=D SPACE FUNCTION CLASSROOM/LECTURE HALL/TRAINING ROOM OTHER ELEC EQUIP 50.0 PERCENT REDUCTION,NECB-D-ELECTRIC-EQUIPMENT,ALL_ST=CLASSROOM/LECTURE HALL/TRAINING ROOM OTHER_FL=BUILDING STORY 1_SCH=D,297.00,39.6,742.770,2.501,18.750,0.000,0.500,0.000,0.500,General,37.138,668.493
 ElectricEquipment Internal Gains Nominal, ALL_ST=CLASSROOM/LECTURE HALL/TRAINING ROOM OTHER_FL=BUILDING STORY 1_SCH=D 1 SPACE FUNCTION CLASSROOM/LECTURE HALL/TRAINING ROOM OTHER ELEC EQUIP 50.0 PERCENT REDUCTION,NECB-D-ELECTRIC-EQUIPMENT,ALL_ST=CLASSROOM/LECTURE HALL/TRAINING ROOM OTHER_FL=BUILDING STORY 1_SCH=D 1,1431.00,190.9,3578.800,2.501,18.750,0.000,0.500,0.000,0.500,General,178.940,3220.920
 ElectricEquipment Internal Gains Nominal, ALL_ST=CLASSROOM/LECTURE HALL/TRAINING ROOM OTHER_FL=BUILDING STORY 1_SCH=D 2 SPACE FUNCTION CLASSROOM/LECTURE HALL/TRAINING ROOM OTHER ELEC EQUIP 50.0 PERCENT REDUCTION,NECB-D-ELECTRIC-EQUIPMENT,ALL_ST=CLASSROOM/LECTURE HALL/TRAINING ROOM OTHER_FL=BUILDING STORY 1_SCH=D 2,1431.00,190.9,3578.800,2.501,18.750,0.000,0.500,0.000,0.500,General,178.940,3220.920
 ElectricEquipment Internal Gains Nominal, ALL_ST=CLASSROOM/LECTURE HALL/TRAINING ROOM OTHER_FL=BUILDING STORY 1_SCH=D 3 SPACE FUNCTION CLASSROOM/LECTURE HALL/TRAINING ROOM OTHER ELEC EQUIP 50.0 PERCENT REDUCTION,NECB-D-ELECTRIC-EQUIPMENT,ALL_ST=CLASSROOM/LECTURE HALL/TRAINING ROOM OTHER_FL=BUILDING STORY 1_SCH=D 3,297.00,39.6,742.770,2.501,18.750,0.000,0.500,0.000,0.500,General,37.138,668.493
 ElectricEquipment Internal Gains Nominal, ALL_ST=CLASSROOM/LECTURE HALL/TRAINING ROOM OTHER_FL=BUILDING STORY 2_SCH=D SPACE FUNCTION CLASSROOM/LECTURE HALL/TRAINING ROOM OTHER ELEC EQUIP 50.0 PERCENT REDUCTION,NECB-D-ELECTRIC-EQUIPMENT,ALL_ST=CLASSROOM/LECTURE HALL/TRAINING ROOM OTHER_FL=BUILDING STORY 2_SCH=D,297.00,39.6,742.770,2.501,18.750,0.000,0.500,0.000,0.500,General,37.138,668.493
 ElectricEquipment Internal Gains Nominal, ALL_ST=CLASSROOM/LECTURE HALL/TRAINING ROOM OTHER_FL=BUILDING STORY 2_SCH=D 1 SPACE FUNCTION CLASSROOM/LECTURE HALL/TRAINING ROOM OTHER ELEC EQUIP 50.0 PERCENT REDUCTION,NECB-D-ELECTRIC-EQUIPMENT,ALL_ST=CLASSROOM/LECTURE HALL/TRAINING ROOM OTHER_FL=BUILDING STORY 2_SCH=D 1,1431.00,190.9,3578.800,2.501,18.750,0.000,0.500,0.000,0.500,General,178.940,3220.920
 ElectricEquipment Internal Gains Nominal, ALL_ST=CLASSROOM/LECTURE HALL/TRAINING ROOM OTHER_FL=BUILDING STORY 2_SCH=D 2 SPACE FUNCTION CLASSROOM/LECTURE HALL/TRAINING ROOM OTHER ELEC EQUIP 50.0 PERCENT REDUCTION,NECB-D-ELECTRIC-EQUIPMENT,ALL_ST=CLASSROOM/LECTURE HALL/TRAINING ROOM OTHER_FL=BUILDING STORY 2_SCH=D 2,1431.00,190.9,3578.800,2.501,18.750,0.000,0.500,0.000,0.500,General,178.940,3220.920
 ElectricEquipment Internal Gains Nominal, ALL_ST=CLASSROOM/LECTURE HALL/TRAINING ROOM OTHER_FL=BUILDING STORY 2_SCH=D 3 SPACE FUNCTION CLASSROOM/LECTURE HALL/TRAINING ROOM OTHER ELEC EQUIP 50.0 PERCENT REDUCTION,NECB-D-ELECTRIC-EQUIPMENT,ALL_ST=CLASSROOM/LECTURE HALL/TRAINING ROOM OTHER_FL=BUILDING STORY 2_SCH=D 3,297.00,39.6,742.770,2.501,18.750,0.000,0.500,0.000,0.500,General,37.138,668.493
 ElectricEquipment Internal Gains Nominal, ALL_ST=CONFERENCE/MEETING/MULTI-PURPOSE ROOM_FL=BUILDING STORY 1_SCH=C SPACE FUNCTION CONFERENCE/MEETING/MULTI-PURPOSE ROOM ELEC EQUIP 50.0 PERCENT REDUCTION,NECB-C-ELECTRIC-EQUIPMENT,ALL_ST=CONFERENCE/MEETING/MULTI-PURPOSE ROOM_FL=BUILDING STORY 1_SCH=C,624.00,124.8,312.113,0.500,2.500,0.000,0.500,0.000,0.500,General,15.606,280.902
 ElectricEquipment Internal Gains Nominal, WILD_ST=ELECTRICAL/MECHANICAL ROOM-SCH-D_FL=BUILDING STORY 1_SCH=D SPACE FUNCTION ELECTRICAL/MECHANICAL ROOM-SCH-D ELEC EQUIP 50.0 PERCENT REDUCTION,NECB-D-ELECTRIC-EQUIPMENT,WILD_ST=ELECTRICAL/MECHANICAL ROOM-SCH-D_FL=BUILDING STORY 1_SCH=D,342.00,1.7,171.062,0.500,100.000,0.000,0.500,0.000,0.500,General,8.553,153.956
 ElectricEquipment Internal Gains Nominal, WILD_ST=ELECTRICAL/MECHANICAL ROOM-SCH-D_FL=BUILDING STORY 2_SCH=D SPACE FUNCTION ELECTRICAL/MECHANICAL ROOM-SCH-D ELEC EQUIP 50.0 PERCENT REDUCTION,NECB-D-ELECTRIC-EQUIPMENT,WILD_ST=ELECTRICAL/MECHANICAL ROOM-SCH-D_FL=BUILDING STORY 2_SCH=D,342.00,1.7,171.062,0.500,100.000,0.000,0.500,0.000,0.500,General,8.553,153.956
 ElectricEquipment Internal Gains Nominal, ALL_ST=FOOD PREPARATION AREA_FL=BUILDING STORY 1_SCH=B SPACE FUNCTION FOOD PREPARATION AREA ELEC EQUIP 50.0 PERCENT REDUCTION,NECB-B-ELECTRIC-EQUIPMENT,ALL_ST=FOOD PREPARATION AREA_FL=BUILDING STORY 1_SCH=B,216.00,10.8,1080.392,5.002,100.000,0.000,0.500,0.000,0.500,General,108.039,972.353
 ElectricEquipment Internal Gains Nominal, ALL_ST=GYMNASIUM/FITNESS CENTRE PLAYING AREA_FL=BUILDING STORY 1_SCH=B SPACE FUNCTION GYMNASIUM/FITNESS CENTRE PLAYING AREA ELEC EQUIP 50.0 PERCENT REDUCTION,NECB-B-ELECTRIC-EQUIPMENT,ALL_ST=GYMNASIUM/FITNESS CENTRE PLAYING AREA_FL=BUILDING STORY 1_SCH=B,1976.00,395.3,1482.539,0.750,3.750,0.000,0.500,0.000,0.500,General,148.254,1334.285
 ElectricEquipment Internal Gains Nominal, ALL_ST=GYMNASIUM/FITNESS CENTRE PLAYING AREA_FL=BUILDING STORY 1_SCH=B 1 SPACE FUNCTION GYMNASIUM/FITNESS CENTRE PLAYING AREA ELEC EQUIP 50.0 PERCENT REDUCTION,NECB-B-ELECTRIC-EQUIPMENT,ALL_ST=GYMNASIUM/FITNESS CENTRE PLAYING AREA_FL=BUILDING STORY 1_SCH=B 1,1248.00,249.7,936.340,0.750,3.750,0.000,0.500,0.000,0.500,General,93.634,842.706
 ElectricEquipment Internal Gains Nominal, ALL_ST=LIBRARY READING AREA_FL=BUILDING STORY 2_SCH=C SPACE FUNCTION LIBRARY READING AREA ELEC EQUIP 50.0 PERCENT REDUCTION,NECB-C-ELECTRIC-EQUIPMENT,ALL_ST=LIBRARY READING AREA_FL=BUILDING STORY 2_SCH=C,840.00,42.0,420.153,0.500,10.000,0.000,0.500,0.000,0.500,General,21.008,378.137
 ElectricEquipment Internal Gains Nominal, ALL_ST=LOBBY - OTHER_FL=BUILDING STORY 1_SCH=C SPACE FUNCTION LOBBY - OTHER ELEC EQUIP 50.0 PERCENT REDUCTION,NECB-C-ELECTRIC-EQUIPMENT,ALL_ST=LOBBY - OTHER_FL=BUILDING STORY 1_SCH=C,210.00,21.0,105.038,0.500,5.000,0.000,0.500,0.000,0.500,General,5.252,94.534
 ElectricEquipment Internal Gains Nominal, ALL_ST=LOBBY - OTHER_FL=BUILDING STORY 2_SCH=C SPACE FUNCTION LOBBY - OTHER ELEC EQUIP 50.0 PERCENT REDUCTION,NECB-C-ELECTRIC-EQUIPMENT,ALL_ST=LOBBY - OTHER_FL=BUILDING STORY 2_SCH=C,210.00,21.0,105.038,0.500,5.000,0.000,0.500,0.000,0.500,General,5.252,94.534
 ElectricEquipment Internal Gains Nominal, ALL_ST=OFFICE ENCLOSED <= 25 M2_FL=BUILDING STORY 1_SCH=A SPACE FUNCTION OFFICE ENCLOSED <= 25 M2 ELEC EQUIP 50.0 PERCENT REDUCTION,NECB-A-ELECTRIC-EQUIPMENT,ALL_ST=OFFICE ENCLOSED <= 25 M2_FL=BUILDING STORY 1_SCH=A,532.00,26.6,1995.725,3.751,75.000,0.000,0.500,0.000,0.500,General,399.145,1796.153
 ElectricEquipment Internal Gains Nominal, ALL_ST=OFFICE ENCLOSED <= 25 M2_FL=BUILDING STORY 2_SCH=A SPACE FUNCTION OFFICE ENCLOSED <= 25 M2 ELEC EQUIP 50.0 PERCENT REDUCTION,NECB-A-ELECTRIC-EQUIPMENT,ALL_ST=OFFICE ENCLOSED <= 25 M2_FL=BUILDING STORY 2_SCH=A,532.00,26.6,1995.725,3.751,75.000,0.000,0.500,0.000,0.500,General,399.145,1796.153
 ElectricEquipment Internal Gains Nominal, WET_ST=WASHROOM - OTHER-SCH-D_FL=BUILDING STORY 1_SCHD SPACE FUNCTION WASHROOM - OTHER-SCH-D ELEC EQUIP 50.0 PERCENT REDUCTION,NECB-D-ELECTRIC-EQUIPMENT,WET_ST=WASHROOM - OTHER-SCH-D_FL=BUILDING STORY 1_SCHD,210.00,7.0,105.038,0.500,15.000,0.000,0.500,0.000,0.500,General,5.252,94.534
 ElectricEquipment Internal Gains Nominal, WET_ST=WASHROOM - OTHER-SCH-D_FL=BUILDING STORY 2_SCHD SPACE FUNCTION WASHROOM - OTHER-SCH-D ELEC EQUIP 50.0 PERCENT REDUCTION,NECB-D-ELECTRIC-EQUIPMENT,WET_ST=WASHROOM - OTHER-SCH-D_FL=BUILDING STORY 2_SCHD,210.00,7.0,105.038,0.500,15.000,0.000,0.500,0.000,0.500,General,5.252,94.534
! <Shadowing/Sun Position Calculations Annual Simulations>, Calculation Method, Value {days}, Allowable Number Figures in Shadow Overlap {}, Polygon Clipping Algorithm, Sky Diffuse Modeling Algorithm, External Shading Calculation Method, Output External Shading Calculation Results, Disable Self-Shading Within Shading Zone Groups, Disable Self-Shading From Shading Zone Groups to Other Zones
Shadowing/Sun Position Calculations Annual Simulations,AverageOverDaysInFrequency,30,15000,SutherlandHodgman,SimpleSkyDiffuseModeling,InternalCalculation,No,No,No
! <Water Heater Information>,Type,Name,Volume {m3},Maximum Capacity {W},Standard Rated Recovery Efficiency, Standard Rated Energy Factor
! <Heat Pump Water Heater Information>,Type,Name,Volume {m3},Maximum Capacity {W},Standard Rated Recovery Efficiency,Standard Rated Energy Factor,"DX Coil Total Cooling Rate {W, HPWH Only}"
! <ZoneInfiltration Airflow Stats Nominal>,Name,Schedule Name,Zone Name, Zone Floor Area {m2}, # Zone Occupants,Design Volume Flow Rate {m3/s},Volume Flow Rate/Floor Area {m3/s/m2},Volume Flow Rate/Exterior Surface Area {m3/s/m2},ACH - Air Changes per Hour,Equation A - Constant Term Coefficient {},Equation B - Temperature Term Coefficient {1/C},Equation C - Velocity Term Coefficient {s/m}, Equation D - Velocity Squared Term Coefficient {s2/m2}
 ZoneInfiltration Airflow Stats Nominal, AUDITORIUM_ZN_1_FLR_1 INFILTRATION,ALWAYS ON DISCRETE,ALL_ST=AUDIENCE SEATING AREA PERMANENT - AUDITORIUM_FL=BUILDING STORY 1_SCH=C,988.00,197.7,4.445E-002,4.499E-005,3.440E-005,2.024E-002,0.000,0.000,0.224,0.000
 ZoneInfiltration Airflow Stats Nominal, CORNER_CLASS_1_POD_1_ZN_1_FLR_1 INFILTRATION,ALWAYS ON DISCRETE,ALL_ST=CLASSROOM/LECTURE HALL/TRAINING ROOM OTHER_FL=BUILDING STORY 1_SCH=D,297.00,39.6,2.752E-003,9.266E-006,1.147E-005,8.340E-003,0.000,0.000,0.224,0.000
 ZoneInfiltration Airflow Stats Nominal, CORNER_CLASS_1_POD_2_ZN_1_FLR_1 INFILTRATION,ALWAYS ON DISCRETE,ALL_ST=CLASSROOM/LECTURE HALL/TRAINING ROOM OTHER_FL=BUILDING STORY 1_SCH=D,297.00,39.6,2.752E-003,9.266E-006,1.147E-005,8.340E-003,0.000,0.000,0.224,0.000
 ZoneInfiltration Airflow Stats Nominal, CORNER_CLASS_1_POD_3_ZN_1_FLR_1 INFILTRATION,ALWAYS ON DISCRETE,ALL_ST=CLASSROOM/LECTURE HALL/TRAINING ROOM OTHER_FL=BUILDING STORY 1_SCH=D,297.00,39.6,2.752E-003,9.266E-006,1.147E-005,8.340E-003,0.000,0.000,0.224,0.000
 ZoneInfiltration Airflow Stats Nominal, MULT_CLASS_2_POD_1_ZN_1_FLR_1 INFILTRATION,ALWAYS ON DISCRETE,ALL_ST=CLASSROOM/LECTURE HALL/TRAINING ROOM OTHER_FL=BUILDING STORY 1_SCH=D 1,1431.00,190.9,7.293E-003,5.096E-006,1.147E-005,4.587E-003,0.000,0.000,0.224,0.000
 ZoneInfiltration Airflow Stats Nominal, MULT_CLASS_2_POD_2_ZN_1_FLR_1 INFILTRATION,ALWAYS ON DISCRETE,ALL_ST=CLASSROOM/LECTURE HALL/TRAINING ROOM OTHER_FL=BUILDING STORY 1_SCH=D 1,1431.00,190.9,7.293E-003,5.096E-006,1.147E-005,4.587E-003,0.000,0.000,0.224,0.000
 ZoneInfiltration Airflow Stats Nominal, MULT_CLASS_2_POD_3_ZN_1_FLR_1 INFILTRATION,ALWAYS ON DISCRETE,ALL_ST=CLASSROOM/LECTURE HALL/TRAINING ROOM OTHER_FL=BUILDING STORY 1_SCH=D 1,1431.00,190.9,7.293E-003,5.096E-006,1.147E-005,4.587E-003,0.000,0.000,0.224,0.000
 ZoneInfiltration Airflow Stats Nominal, MULT_CLASS_1_POD_1_ZN_1_FLR_1 INFILTRATION,ALWAYS ON DISCRETE,ALL_ST=CLASSROOM/LECTURE HALL/TRAINING ROOM OTHER_FL=BUILDING STORY 1_SCH=D 2,1431.00,190.9,7.293E-003,5.096E-006,1.147E-005,4.587E-003,0.000,0.000,0.224,0.000
 ZoneInfiltration Airflow Stats Nominal, MULT_CLASS_1_POD_2_ZN_1_FLR_1 INFILTRATION,ALWAYS ON DISCRETE,ALL_ST=CLASSROOM/LECTURE HALL/TRAINING ROOM OTHER_FL=BUILDING STORY 1_SCH=D 2,1431.00,190.9,7.293E-003,5.096E-006,1.147E-005,4.587E-003,0.000,0.000,0.224,0.000
 ZoneInfiltration Airflow Stats Nominal, MULT_CLASS_1_POD_3_ZN_1_FLR_1 INFILTRATION,ALWAYS ON DISCRETE,ALL_ST=CLASSROOM/LECTURE HALL/TRAINING ROOM OTHER_FL=BUILDING STORY 1_SCH=D 2,1431.00,190.9,7.293E-003,5.096E-006,1.147E-005,4.587E-003,0.000,0.000,0.224,0.000
 ZoneInfiltration Airflow Stats Nominal, CORNER_CLASS_2_POD_1_ZN_1_FLR_1 INFILTRATION,ALWAYS ON DISCRETE,ALL_ST=CLASSROOM/LECTURE HALL/TRAINING ROOM OTHER_FL=BUILDING STORY 1_SCH=D 3,297.00,39.6,2.752E-003,9.266E-006,1.147E-005,8.340E-003,0.000,0.000,0.224,0.000
 ZoneInfiltration Airflow Stats Nominal, CORNER_CLASS_2_POD_2_ZN_1_FLR_1 INFILTRATION,ALWAYS ON DISCRETE,ALL_ST=CLASSROOM/LECTURE HALL/TRAINING ROOM OTHER_FL=BUILDING STORY 1_SCH=D 3,297.00,39.6,2.752E-003,9.266E-006,1.147E-005,8.340E-003,0.000,0.000,0.224,0.000
 ZoneInfiltration Airflow Stats Nominal, CORNER_CLASS_2_POD_3_ZN_1_FLR_1 INFILTRATION,ALWAYS ON DISCRETE,ALL_ST=CLASSROOM/LECTURE HALL/TRAINING ROOM OTHER_FL=BUILDING STORY 1_SCH=D 3,297.00,39.6,2.752E-003,9.266E-006,1.147E-005,8.340E-003,0.000,0.000,0.224,0.000
 ZoneInfiltration Airflow Stats Nominal, CORNER_CLASS_2_POD_1_ZN_1_FLR_2 INFILTRATION,ALWAYS ON DISCRETE,ALL_ST=CLASSROOM/LECTURE HALL/TRAINING ROOM OTHER_FL=BUILDING STORY 2_SCH=D,297.00,39.6,6.158E-003,2.073E-005,1.147E-005,1.866E-002,0.000,0.000,0.224,0.000
 ZoneInfiltration Airflow Stats Nominal, CORNER_CLASS_2_POD_2_ZN_1_FLR_2 INFILTRATION,ALWAYS ON DISCRETE,ALL_ST=CLASSROOM/LECTURE HALL/TRAINING ROOM OTHER_FL=BUILDING STORY 2_SCH=D,297.00,39.6,6.158E-003,2.073E-005,1.147E-005,1.866E-002,0.000,0.000,0.224,0.000
 ZoneInfiltration Airflow Stats Nominal, CORNER_CLASS_2_POD_3_ZN_1_FLR_2 INFILTRATION,ALWAYS ON DISCRETE,ALL_ST=CLASSROOM/LECTURE HALL/TRAINING ROOM OTHER_FL=BUILDING STORY 2_SCH=D,297.00,39.6,6.158E-003,2.073E-005,1.147E-005,1.866E-002,0.000,0.000,0.224,0.000
 ZoneInfiltration Airflow Stats Nominal, MULT_CLASS_1_POD_1_ZN_1_FLR_2 INFILTRATION,ALWAYS ON DISCRETE,ALL_ST=CLASSROOM/LECTURE HALL/TRAINING ROOM OTHER_FL=BUILDING STORY 2_SCH=D 1,1431.00,190.9,2.370E-002,1.656E-005,1.147E-005,1.491E-002,0.000,0.000,0.224,0.000
 ZoneInfiltration Airflow Stats Nominal, MULT_CLASS_1_POD_2_ZN_1_FLR_2 INFILTRATION,ALWAYS ON DISCRETE,ALL_ST=CLASSROOM/LECTURE HALL/TRAINING ROOM OTHER_FL=BUILDING STORY 2_SCH=D 1,1431.00,190.9,2.370E-002,1.656E-005,1.147E-005,1.491E-002,0.000,0.000,0.224,0.000
 ZoneInfiltration Airflow Stats Nominal, MULT_CLASS_1_POD_3_ZN_1_FLR_2 INFILTRATION,ALWAYS ON DISCRETE,ALL_ST=CLASSROOM/LECTURE HALL/TRAINING ROOM OTHER_FL=BUILDING STORY 2_SCH=D 1,1431.00,190.9,2.370E-002,1.656E-005,1.147E-005,1.491E-002,0.000,0.000,0.224,0.000
 ZoneInfiltration Airflow Stats Nominal, MULT_CLASS_2_POD_1_ZN_1_FLR_2 INFILTRATION,ALWAYS ON DISCRETE,ALL_ST=CLASSROOM/LECTURE HALL/TRAINING ROOM OTHER_FL=BUILDING STORY 2_SCH=D 2,1431.00,190.9,2.370E-002,1.656E-005,1.147E-005,1.491E-002,0.000,0.000,0.224,0.000
 ZoneInfiltration Airflow Stats Nominal, MULT_CLASS_2_POD_2_ZN_1_FLR_2 INFILTRATION,ALWAYS ON DISCRETE,ALL_ST=CLASSROOM/LECTURE HALL/TRAINING ROOM OTHER_FL=BUILDING STORY 2_SCH=D 2,1431.00,190.9,2.370E-002,1.656E-005,1.147E-005,1.491E-002,0.000,0.000,0.224,0.000
 ZoneInfiltration Airflow Stats Nominal, MULT_CLASS_2_POD_3_ZN_1_FLR_2 INFILTRATION,ALWAYS ON DISCRETE,ALL_ST=CLASSROOM/LECTURE HALL/TRAINING ROOM OTHER_FL=BUILDING STORY 2_SCH=D 2,1431.00,190.9,2.370E-002,1.656E-005,1.147E-005,1.491E-002,0.000,0.000,0.224,0.000
 ZoneInfiltration Airflow Stats Nominal, CORNER_CLASS_1_POD_1_ZN_1_FLR_2 INFILTRATION,ALWAYS ON DISCRETE,ALL_ST=CLASSROOM/LECTURE HALL/TRAINING ROOM OTHER_FL=BUILDING STORY 2_SCH=D 3,297.00,39.6,6.158E-003,2.073E-005,1.147E-005,1.866E-002,0.000,0.000,0.224,0.000
 ZoneInfiltration Airflow Stats Nominal, CORNER_CLASS_1_POD_2_ZN_1_FLR_2 INFILTRATION,ALWAYS ON DISCRETE,ALL_ST=CLASSROOM/LECTURE HALL/TRAINING ROOM OTHER_FL=BUILDING STORY 2_SCH=D 3,297.00,39.6,6.158E-003,2.073E-005,1.147E-005,1.866E-002,0.000,0.000,0.224,0.000
 ZoneInfiltration Airflow Stats Nominal, CORNER_CLASS_1_POD_3_ZN_1_FLR_2 INFILTRATION,ALWAYS ON DISCRETE,ALL_ST=CLASSROOM/LECTURE HALL/TRAINING ROOM OTHER_FL=BUILDING STORY 2_SCH=D 3,297.00,39.6,6.158E-003,2.073E-005,1.147E-005,1.866E-002,0.000,0.000,0.224,0.000
 ZoneInfiltration Airflow Stats Nominal, CAFETERIA_ZN_1_FLR_1 INFILTRATION,ALWAYS ON DISCRETE,ALL_ST=CONFERENCE/MEETING/MULTI-PURPOSE ROOM_FL=BUILDING STORY 1_SCH=C,624.00,124.8,6.880E-003,1.103E-005,3.440E-005,9.923E-003,0.000,0.000,0.224,0.000
 ZoneInfiltration Airflow Stats Nominal, KITCHEN_ZN_1_FLR_1 INFILTRATION,ALWAYS ON DISCRETE,ALL_ST=FOOD PREPARATION AREA_FL=BUILDING STORY 1_SCH=B,216.00,10.8,1.238E-003,5.733E-006,3.440E-005,5.160E-003,0.000,0.000,0.224,0.000
 ZoneInfiltration Airflow Stats Nominal, GYM_ZN_1_FLR_1 INFILTRATION,ALWAYS ON DISCRETE,ALL_ST=GYMNASIUM/FITNESS CENTRE PLAYING AREA_FL=BUILDING STORY 1_SCH=B,1976.00,395.3,6.798E-002,3.440E-005,3.440E-005,1.548E-002,0.000,0.000,0.224,0.000
 ZoneInfiltration Airflow Stats Nominal, AUX_GYM_ZN_1_FLR_1 INFILTRATION,ALWAYS ON DISCRETE,ALL_ST=GYMNASIUM/FITNESS CENTRE PLAYING AREA_FL=BUILDING STORY 1_SCH=B 1,1248.00,249.7,6.385E-002,5.116E-005,3.440E-005,2.302E-002,0.000,0.000,0.224,0.000
 ZoneInfiltration Airflow Stats Nominal, LIBRARY_MEDIA_CENTER_ZN_1_FLR_2 INFILTRATION,ALWAYS ON DISCRETE,ALL_ST=LIBRARY READING AREA_FL=BUILDING STORY 2_SCH=C,840.00,42.0,3.702E-002,4.407E-005,3.440E-005,3.966E-002,0.000,0.000,0.224,0.000
 ZoneInfiltration Airflow Stats Nominal, LOBBY_ZN_1_FLR_1 INFILTRATION,ALWAYS ON DISCRETE,ALL_ST=LOBBY - OTHER_FL=BUILDING STORY 1_SCH=C,210.00,21.0,2.064E-003,9.829E-006,3.440E-005,8.846E-003,0.000,0.000,0.224,0.000
 ZoneInfiltration Airflow Stats Nominal, LOBBY_ZN_1_FLR_2 INFILTRATION,ALWAYS ON DISCRETE,ALL_ST=LOBBY - OTHER_FL=BUILDING STORY 2_SCH=C,210.00,21.0,9.288E-003,4.423E-005,3.440E-005,3.981E-002,0.000,0.000,0.224,0.000
 ZoneInfiltration Airflow Stats Nominal, OFFICES_ZN_1_FLR_1 INFILTRATION,ALWAYS ON DISCRETE,ALL_ST=OFFICE ENCLOSED <= 25 M2_FL=BUILDING STORY 1_SCH=A,532.00,26.6,7.155E-003,1.345E-005,3.440E-005,1.210E-002,0.000,0.000,0.224,0.000
 ZoneInfiltration Airflow Stats Nominal, OFFICES_ZN_1_FLR_2 INFILTRATION,ALWAYS ON DISCRETE,ALL_ST=OFFICE ENCLOSED <= 25 M2_FL=BUILDING STORY 2_SCH=A,532.00,26.6,2.546E-002,4.785E-005,3.440E-005,4.307E-002,0.000,0.000,0.224,0.000
 ZoneInfiltration Airflow Stats Nominal, BATHROOMS_ZN_1_FLR_1 INFILTRATION,ALWAYS ON DISCRETE,WET_ST=WASHROOM - OTHER-SCH-D_FL=BUILDING STORY 1_SCHD,210.00,7.0,2.477E-003,1.179E-005,3.440E-005,1.062E-002,0.000,0.000,0.224,0.000
 ZoneInfiltration Airflow Stats Nominal, BATHROOMS_ZN_1_FLR_2 INFILTRATION,ALWAYS ON DISCRETE,WET_ST=WASHROOM - OTHER-SCH-D_FL=BUILDING STORY 2_SCHD,210.00,7.0,9.701E-003,4.620E-005,3.440E-005,4.158E-002,0.000,0.000,0.224,0.000
 ZoneInfiltration Airflow Stats Nominal, MAIN_CORRIDOR_ZN_1_FLR_1 INFILTRATION,ALWAYS ON DISCRETE,WILD_ST=CORRIDOR/TRANSITION AREA OTHER-SCH-D_FL=BUILDING STORY 1_SCH=D,1140.00,11.4,4.816E-003,4.225E-006,3.440E-005,3.802E-003,0.000,0.000,0.224,0.000
 ZoneInfiltration Airflow Stats Nominal, CORRIDOR_POD_1_ZN_1_FLR_1 INFILTRATION,ALWAYS ON DISCRETE,WILD_ST=CORRIDOR/TRANSITION AREA OTHER-SCH-D_FL=BUILDING STORY 1_SCH=D 1,960.00,9.6,6.880E-004,7.167E-007,1.147E-005,6.450E-004,0.000,0.000,0.224,0.000
 ZoneInfiltration Airflow Stats Nominal, CORRIDOR_POD_2_ZN_1_FLR_1 INFILTRATION,ALWAYS ON DISCRETE,WILD_ST=CORRIDOR/TRANSITION AREA OTHER-SCH-D_FL=BUILDING STORY 1_SCH=D 1,960.00,9.6,6.880E-004,7.167E-007,1.147E-005,6.450E-004,0.000,0.000,0.224,0.000
 ZoneInfiltration Airflow Stats Nominal, CORRIDOR_POD_3_ZN_1_FLR_1 INFILTRATION,ALWAYS ON DISCRETE,WILD_ST=CORRIDOR/TRANSITION AREA OTHER-SCH-D_FL=BUILDING STORY 1_SCH=D 1,960.00,9.6,6.880E-004,7.167E-007,1.147E-005,6.450E-004,0.000,0.000,0.224,0.000
 ZoneInfiltration Airflow Stats Nominal, MAIN_CORRIDOR_ZN_1_FLR_2 INFILTRATION,ALWAYS ON DISCRETE,WILD_ST=CORRIDOR/TRANSITION AREA OTHER-SCH-D_FL=BUILDING STORY 2_SCH=D,1140.00,11.4,4.403E-002,3.863E-005,3.440E-005,3.476E-002,0.000,0.000,0.224,0.000
 ZoneInfiltration Airflow Stats Nominal, CORRIDOR_POD_1_ZN_1_FLR_2 INFILTRATION,ALWAYS ON DISCRETE,WILD_ST=CORRIDOR/TRANSITION AREA OTHER-SCH-D_FL=BUILDING STORY 2_SCH=D 1,960.00,9.6,1.170E-002,1.218E-005,1.147E-005,1.097E-002,0.000,0.000,0.224,0.000
 ZoneInfiltration Airflow Stats Nominal, CORRIDOR_POD_2_ZN_1_FLR_2 INFILTRATION,ALWAYS ON DISCRETE,WILD_ST=CORRIDOR/TRANSITION AREA OTHER-SCH-D_FL=BUILDING STORY 2_SCH=D 1,960.00,9.6,1.170E-002,1.218E-005,1.147E-005,1.097E-002,0.000,0.000,0.224,0.000
 ZoneInfiltration Airflow Stats Nominal, CORRIDOR_POD_3_ZN_1_FLR_2 INFILTRATION,ALWAYS ON DISCRETE,WILD_ST=CORRIDOR/TRANSITION AREA OTHER-SCH-D_FL=BUILDING STORY 2_SCH=D 1,960.00,9.6,1.170E-002,1.218E-005,1.147E-005,1.097E-002,0.000,0.000,0.224,0.000
 ZoneInfiltration Airflow Stats Nominal, MECH_ZN_1_FLR_2 INFILTRATION,ALWAYS ON DISCRETE,WILD_ST=ELECTRICAL/MECHANICAL ROOM-SCH-D_FL=BUILDING STORY 2_SCH=D,342.00,1.7,1.177E-002,3.440E-005,3.440E-005,3.096E-002,0.000,0.000,0.224,0.000
! <AirFlow Model>, Simple
 AirFlow Model, Simple
! <RoomAir Model>, Zone Name, Mixing/Mundt/UCSDDV/UCSDCV/UCSDUFI/UCSDUFE/User Defined
RoomAir Model,ALL_ST=AUDIENCE SEATING AREA PERMANENT - AUDITORIUM_FL=BUILDING STORY 1_SCH=C,Mixing/Well-Stirred
RoomAir Model,ALL_ST=CLASSROOM/LECTURE HALL/TRAINING ROOM OTHER_FL=BUILDING STORY 1_SCH=D,Mixing/Well-Stirred
RoomAir Model,ALL_ST=CLASSROOM/LECTURE HALL/TRAINING ROOM OTHER_FL=BUILDING STORY 1_SCH=D 1,Mixing/Well-Stirred
RoomAir Model,ALL_ST=CLASSROOM/LECTURE HALL/TRAINING ROOM OTHER_FL=BUILDING STORY 1_SCH=D 2,Mixing/Well-Stirred
RoomAir Model,ALL_ST=CLASSROOM/LECTURE HALL/TRAINING ROOM OTHER_FL=BUILDING STORY 1_SCH=D 3,Mixing/Well-Stirred
RoomAir Model,ALL_ST=CLASSROOM/LECTURE HALL/TRAINING ROOM OTHER_FL=BUILDING STORY 2_SCH=D,Mixing/Well-Stirred
RoomAir Model,ALL_ST=CLASSROOM/LECTURE HALL/TRAINING ROOM OTHER_FL=BUILDING STORY 2_SCH=D 1,Mixing/Well-Stirred
RoomAir Model,ALL_ST=CLASSROOM/LECTURE HALL/TRAINING ROOM OTHER_FL=BUILDING STORY 2_SCH=D 2,Mixing/Well-Stirred
RoomAir Model,ALL_ST=CLASSROOM/LECTURE HALL/TRAINING ROOM OTHER_FL=BUILDING STORY 2_SCH=D 3,Mixing/Well-Stirred
RoomAir Model,ALL_ST=CONFERENCE/MEETING/MULTI-PURPOSE ROOM_FL=BUILDING STORY 1_SCH=C,Mixing/Well-Stirred
RoomAir Model,ALL_ST=FOOD PREPARATION AREA_FL=BUILDING STORY 1_SCH=B,Mixing/Well-Stirred
RoomAir Model,ALL_ST=GYMNASIUM/FITNESS CENTRE PLAYING AREA_FL=BUILDING STORY 1_SCH=B,Mixing/Well-Stirred
RoomAir Model,ALL_ST=GYMNASIUM/FITNESS CENTRE PLAYING AREA_FL=BUILDING STORY 1_SCH=B 1,Mixing/Well-Stirred
RoomAir Model,ALL_ST=LIBRARY READING AREA_FL=BUILDING STORY 2_SCH=C,Mixing/Well-Stirred
RoomAir Model,ALL_ST=LOBBY - OTHER_FL=BUILDING STORY 1_SCH=C,Mixing/Well-Stirred
RoomAir Model,ALL_ST=LOBBY - OTHER_FL=BUILDING STORY 2_SCH=C,Mixing/Well-Stirred
RoomAir Model,ALL_ST=OFFICE ENCLOSED <= 25 M2_FL=BUILDING STORY 1_SCH=A,Mixing/Well-Stirred
RoomAir Model,ALL_ST=OFFICE ENCLOSED <= 25 M2_FL=BUILDING STORY 2_SCH=A,Mixing/Well-Stirred
RoomAir Model,WET_ST=WASHROOM - OTHER-SCH-D_FL=BUILDING STORY 1_SCHD,Mixing/Well-Stirred
RoomAir Model,WET_ST=WASHROOM - OTHER-SCH-D_FL=BUILDING STORY 2_SCHD,Mixing/Well-Stirred
RoomAir Model,WILD_ST=CORRIDOR/TRANSITION AREA OTHER-SCH-D_FL=BUILDING STORY 1_SCH=D,Mixing/Well-Stirred
RoomAir Model,WILD_ST=CORRIDOR/TRANSITION AREA OTHER-SCH-D_FL=BUILDING STORY 1_SCH=D 1,Mixing/Well-Stirred
RoomAir Model,WILD_ST=CORRIDOR/TRANSITION AREA OTHER-SCH-D_FL=BUILDING STORY 2_SCH=D,Mixing/Well-Stirred
RoomAir Model,WILD_ST=CORRIDOR/TRANSITION AREA OTHER-SCH-D_FL=BUILDING STORY 2_SCH=D 1,Mixing/Well-Stirred
RoomAir Model,WILD_ST=ELECTRICAL/MECHANICAL ROOM-SCH-D_FL=BUILDING STORY 1_SCH=D,Mixing/Well-Stirred
RoomAir Model,WILD_ST=ELECTRICAL/MECHANICAL ROOM-SCH-D_FL=BUILDING STORY 2_SCH=D,Mixing/Well-Stirred
! <AirflowNetwork Model:Control>, No Multizone or Distribution/Multizone with Distribution/Multizone without Distribution/Multizone with Distribution only during Fan Operation
AirflowNetwork Model:Control,NoMultizoneOrDistribution
! <Zone Volume Capacitance Multiplier>, Sensible Heat Capacity Multiplier, Moisture Capacity Multiplier, Carbon Dioxide Capacity Multiplier, Generic Contaminant Capacity Multiplier
Zone Volume Capacitance Multiplier,   1.000 ,   1.000,   1.000,   1.000
! <Load Timesteps in Zone Design Calculation Averaging Window>, Value
 Load Timesteps in Zone Design Calculation Averaging Window,    4
! <Heating Sizing Factor Information>, Sizing Factor ID, Value
 Heating Sizing Factor Information, Global,   1.3000    
 Heating Sizing Factor Information, Zone ALL_ST=AUDIENCE SEATING AREA PERMANENT - AUDITORIUM_FL=BUILDING STORY 1_SCH=C,   1.3000    
 Heating Sizing Factor Information, Zone ALL_ST=CLASSROOM/LECTURE HALL/TRAINING ROOM OTHER_FL=BUILDING STORY 1_SCH=D,   1.3000    
 Heating Sizing Factor Information, Zone ALL_ST=CLASSROOM/LECTURE HALL/TRAINING ROOM OTHER_FL=BUILDING STORY 1_SCH=D 1,   1.3000    
 Heating Sizing Factor Information, Zone ALL_ST=CLASSROOM/LECTURE HALL/TRAINING ROOM OTHER_FL=BUILDING STORY 1_SCH=D 2,   1.3000    
 Heating Sizing Factor Information, Zone ALL_ST=CLASSROOM/LECTURE HALL/TRAINING ROOM OTHER_FL=BUILDING STORY 1_SCH=D 3,   1.3000    
 Heating Sizing Factor Information, Zone ALL_ST=CLASSROOM/LECTURE HALL/TRAINING ROOM OTHER_FL=BUILDING STORY 2_SCH=D,   1.3000    
 Heating Sizing Factor Information, Zone ALL_ST=CLASSROOM/LECTURE HALL/TRAINING ROOM OTHER_FL=BUILDING STORY 2_SCH=D 1,   1.3000    
 Heating Sizing Factor Information, Zone ALL_ST=CLASSROOM/LECTURE HALL/TRAINING ROOM OTHER_FL=BUILDING STORY 2_SCH=D 2,   1.3000    
 Heating Sizing Factor Information, Zone ALL_ST=CLASSROOM/LECTURE HALL/TRAINING ROOM OTHER_FL=BUILDING STORY 2_SCH=D 3,   1.3000    
 Heating Sizing Factor Information, Zone ALL_ST=CONFERENCE/MEETING/MULTI-PURPOSE ROOM_FL=BUILDING STORY 1_SCH=C,   1.3000    
 Heating Sizing Factor Information, Zone ALL_ST=FOOD PREPARATION AREA_FL=BUILDING STORY 1_SCH=B,   1.3000    
 Heating Sizing Factor Information, Zone ALL_ST=GYMNASIUM/FITNESS CENTRE PLAYING AREA_FL=BUILDING STORY 1_SCH=B,   1.3000    
 Heating Sizing Factor Information, Zone ALL_ST=GYMNASIUM/FITNESS CENTRE PLAYING AREA_FL=BUILDING STORY 1_SCH=B 1,   1.3000    
 Heating Sizing Factor Information, Zone ALL_ST=LIBRARY READING AREA_FL=BUILDING STORY 2_SCH=C,   1.3000    
 Heating Sizing Factor Information, Zone ALL_ST=LOBBY - OTHER_FL=BUILDING STORY 1_SCH=C,   1.3000    
 Heating Sizing Factor Information, Zone ALL_ST=LOBBY - OTHER_FL=BUILDING STORY 2_SCH=C,   1.3000    
 Heating Sizing Factor Information, Zone ALL_ST=OFFICE ENCLOSED <= 25 M2_FL=BUILDING STORY 1_SCH=A,   1.3000    
 Heating Sizing Factor Information, Zone ALL_ST=OFFICE ENCLOSED <= 25 M2_FL=BUILDING STORY 2_SCH=A,   1.3000    
 Heating Sizing Factor Information, Zone WET_ST=WASHROOM - OTHER-SCH-D_FL=BUILDING STORY 1_SCHD,   1.3000    
 Heating Sizing Factor Information, Zone WET_ST=WASHROOM - OTHER-SCH-D_FL=BUILDING STORY 2_SCHD,   1.3000    
 Heating Sizing Factor Information, Zone WILD_ST=CORRIDOR/TRANSITION AREA OTHER-SCH-D_FL=BUILDING STORY 1_SCH=D,   1.3000    
 Heating Sizing Factor Information, Zone WILD_ST=CORRIDOR/TRANSITION AREA OTHER-SCH-D_FL=BUILDING STORY 1_SCH=D 1,   1.3000    
 Heating Sizing Factor Information, Zone WILD_ST=CORRIDOR/TRANSITION AREA OTHER-SCH-D_FL=BUILDING STORY 2_SCH=D,   1.3000    
 Heating Sizing Factor Information, Zone WILD_ST=CORRIDOR/TRANSITION AREA OTHER-SCH-D_FL=BUILDING STORY 2_SCH=D 1,   1.3000    
 Heating Sizing Factor Information, Zone WILD_ST=ELECTRICAL/MECHANICAL ROOM-SCH-D_FL=BUILDING STORY 1_SCH=D,   1.3000    
 Heating Sizing Factor Information, Zone WILD_ST=ELECTRICAL/MECHANICAL ROOM-SCH-D_FL=BUILDING STORY 2_SCH=D,   1.3000    
! <Cooling Sizing Factor Information>, Sizing Factor ID, Value
 Cooling Sizing Factor Information, Global,   1.1000    
 Cooling Sizing Factor Information, Zone ALL_ST=AUDIENCE SEATING AREA PERMANENT - AUDITORIUM_FL=BUILDING STORY 1_SCH=C,   1.1000    
 Cooling Sizing Factor Information, Zone ALL_ST=CLASSROOM/LECTURE HALL/TRAINING ROOM OTHER_FL=BUILDING STORY 1_SCH=D,   1.1000    
 Cooling Sizing Factor Information, Zone ALL_ST=CLASSROOM/LECTURE HALL/TRAINING ROOM OTHER_FL=BUILDING STORY 1_SCH=D 1,   1.1000    
 Cooling Sizing Factor Information, Zone ALL_ST=CLASSROOM/LECTURE HALL/TRAINING ROOM OTHER_FL=BUILDING STORY 1_SCH=D 2,   1.1000    
 Cooling Sizing Factor Information, Zone ALL_ST=CLASSROOM/LECTURE HALL/TRAINING ROOM OTHER_FL=BUILDING STORY 1_SCH=D 3,   1.1000    
 Cooling Sizing Factor Information, Zone ALL_ST=CLASSROOM/LECTURE HALL/TRAINING ROOM OTHER_FL=BUILDING STORY 2_SCH=D,   1.1000    
 Cooling Sizing Factor Information, Zone ALL_ST=CLASSROOM/LECTURE HALL/TRAINING ROOM OTHER_FL=BUILDING STORY 2_SCH=D 1,   1.1000    
 Cooling Sizing Factor Information, Zone ALL_ST=CLASSROOM/LECTURE HALL/TRAINING ROOM OTHER_FL=BUILDING STORY 2_SCH=D 2,   1.1000    
 Cooling Sizing Factor Information, Zone ALL_ST=CLASSROOM/LECTURE HALL/TRAINING ROOM OTHER_FL=BUILDING STORY 2_SCH=D 3,   1.1000    
 Cooling Sizing Factor Information, Zone ALL_ST=CONFERENCE/MEETING/MULTI-PURPOSE ROOM_FL=BUILDING STORY 1_SCH=C,   1.1000    
 Cooling Sizing Factor Information, Zone ALL_ST=FOOD PREPARATION AREA_FL=BUILDING STORY 1_SCH=B,   1.1000    
 Cooling Sizing Factor Information, Zone ALL_ST=GYMNASIUM/FITNESS CENTRE PLAYING AREA_FL=BUILDING STORY 1_SCH=B,   1.1000    
 Cooling Sizing Factor Information, Zone ALL_ST=GYMNASIUM/FITNESS CENTRE PLAYING AREA_FL=BUILDING STORY 1_SCH=B 1,   1.1000    
 Cooling Sizing Factor Information, Zone ALL_ST=LIBRARY READING AREA_FL=BUILDING STORY 2_SCH=C,   1.1000    
 Cooling Sizing Factor Information, Zone ALL_ST=LOBBY - OTHER_FL=BUILDING STORY 1_SCH=C,   1.1000    
 Cooling Sizing Factor Information, Zone ALL_ST=LOBBY - OTHER_FL=BUILDING STORY 2_SCH=C,   1.1000    
 Cooling Sizing Factor Information, Zone ALL_ST=OFFICE ENCLOSED <= 25 M2_FL=BUILDING STORY 1_SCH=A,   1.1000    
 Cooling Sizing Factor Information, Zone ALL_ST=OFFICE ENCLOSED <= 25 M2_FL=BUILDING STORY 2_SCH=A,   1.1000    
 Cooling Sizing Factor Information, Zone WET_ST=WASHROOM - OTHER-SCH-D_FL=BUILDING STORY 1_SCHD,   1.1000    
 Cooling Sizing Factor Information, Zone WET_ST=WASHROOM - OTHER-SCH-D_FL=BUILDING STORY 2_SCHD,   1.1000    
 Cooling Sizing Factor Information, Zone WILD_ST=CORRIDOR/TRANSITION AREA OTHER-SCH-D_FL=BUILDING STORY 1_SCH=D,   1.1000    
 Cooling Sizing Factor Information, Zone WILD_ST=CORRIDOR/TRANSITION AREA OTHER-SCH-D_FL=BUILDING STORY 1_SCH=D 1,   1.1000    
 Cooling Sizing Factor Information, Zone WILD_ST=CORRIDOR/TRANSITION AREA OTHER-SCH-D_FL=BUILDING STORY 2_SCH=D,   1.1000    
 Cooling Sizing Factor Information, Zone WILD_ST=CORRIDOR/TRANSITION AREA OTHER-SCH-D_FL=BUILDING STORY 2_SCH=D 1,   1.1000    
 Cooling Sizing Factor Information, Zone WILD_ST=ELECTRICAL/MECHANICAL ROOM-SCH-D_FL=BUILDING STORY 1_SCH=D,   1.1000    
 Cooling Sizing Factor Information, Zone WILD_ST=ELECTRICAL/MECHANICAL ROOM-SCH-D_FL=BUILDING STORY 2_SCH=D,   1.1000    
! <Zone Sizing Information>, Zone Name, Load Type, Calc Des Load {W}, User Des Load {W}, Calc Des Air Flow Rate {m3/s}, User Des Air Flow Rate {m3/s}, Design Day Name, Date/Time of Peak, Temperature at Peak {C}, Humidity Ratio at Peak {kgWater/kgDryAir}, Floor Area {m2}, # Occupants, Calc Outdoor Air Flow Rate {m3/s}, Calc DOAS Heat Addition Rate {W}
 Zone Sizing Information, ALL_ST=AUDIENCE SEATING AREA PERMANENT - AUDITORIUM_FL=BUILDING STORY 1_SCH=C, Cooling, 17893.83477, 19683.21825, 1.32704, 4.06542, VICTORIA INTL AP ANN CLG .4% CONDNS DB=>MWB, 7/21 13:45:00, 26.57375, 8.99833E-003, 988.00000, 197.67181, 4.06542, 0.00000
 Zone Sizing Information, ALL_ST=AUDIENCE SEATING AREA PERMANENT - AUDITORIUM_FL=BUILDING STORY 1_SCH=C, Heating, 13339.22913, 17340.99787, 0.49972, 4.06542, VICTORIA INTL AP ANN HTG 99.6% CONDNS DB, 12/21 09:00:00, -4.00000, 2.70334E-003, 988.00000, 197.67181, 4.06542, 0.00000
 Zone Sizing Information, ALL_ST=CLASSROOM/LECTURE HALL/TRAINING ROOM OTHER_FL=BUILDING STORY 1_SCH=D, Cooling, 8809.84456, 9690.82902, 0.65345, 0.82680, VICTORIA INTL AP ANN CLG .4% CONDNS DB=>MWB, 7/21 16:30:00, 25.69000, 8.99832E-003, 297.00000, 39.61439, 0.82680, 0.00000
 Zone Sizing Information, ALL_ST=CLASSROOM/LECTURE HALL/TRAINING ROOM OTHER_FL=BUILDING STORY 1_SCH=D, Heating, 3844.06112, 4997.27946, 0.14657, 0.82680, VICTORIA INTL AP ANN HTG 99.6% CONDNS DB, 12/21 09:00:00, -4.00000, 2.70334E-003, 297.00000, 39.61439, 0.82680, 0.00000
 Zone Sizing Information, ALL_ST=CLASSROOM/LECTURE HALL/TRAINING ROOM OTHER_FL=BUILDING STORY 1_SCH=D 1, Cooling, 18542.88863, 20397.17749, 1.37546, 3.98368, VICTORIA INTL AP ANN CLG .4% CONDNS DB=>MWB, 7/21 16:00:00, 26.09400, 8.99832E-003, 1431.00000, 190.86934, 3.98368, 0.00000
 Zone Sizing Information, ALL_ST=CLASSROOM/LECTURE HALL/TRAINING ROOM OTHER_FL=BUILDING STORY 1_SCH=D 1, Heating, 11148.87951, 14493.54336, 0.42017, 3.98368, VICTORIA INTL AP ANN HTG 99.6% CONDNS DB, 12/21 09:00:00, -4.00000, 2.70334E-003, 1431.00000, 190.86934, 3.98368, 0.00000
 Zone Sizing Information, ALL_ST=CLASSROOM/LECTURE HALL/TRAINING ROOM OTHER_FL=BUILDING STORY 1_SCH=D 2, Cooling, 20199.64994, 22219.61493, 1.49839, 3.98368, VICTORIA INTL AP ANN CLG .4% CONDNS DB=>MWB, 7/21 13:30:00, 26.44750, 8.99833E-003, 1431.00000, 190.86934, 3.98368, 0.00000
 Zone Sizing Information, ALL_ST=CLASSROOM/LECTURE HALL/TRAINING ROOM OTHER_FL=BUILDING STORY 1_SCH=D 2, Heating, 11032.43266, 14342.16245, 0.41563, 3.98368, VICTORIA INTL AP ANN HTG 99.6% CONDNS DB, 12/21 09:00:00, -4.00000, 2.70334E-003, 1431.00000, 190.86934, 3.98368, 0.00000
 Zone Sizing Information, ALL_ST=CLASSROOM/LECTURE HALL/TRAINING ROOM OTHER_FL=BUILDING STORY 1_SCH=D 3, Cooling, 8667.32858, 9534.06143, 0.64288, 0.82680, VICTORIA INTL AP ANN CLG .4% CONDNS DB=>MWB, 7/21 16:30:00, 25.69000, 8.99832E-003, 297.00000, 39.61439, 0.82680, 0.00000
 Zone Sizing Information, ALL_ST=CLASSROOM/LECTURE HALL/TRAINING ROOM OTHER_FL=BUILDING STORY 1_SCH=D 3, Heating, 3884.69068, 5050.09789, 0.14815, 0.82680, VICTORIA INTL AP ANN HTG 99.6% CONDNS DB, 12/21 09:00:00, -4.00000, 2.70334E-003, 297.00000, 39.61439, 0.82680, 0.00000
 Zone Sizing Information, ALL_ST=CLASSROOM/LECTURE HALL/TRAINING ROOM OTHER_FL=BUILDING STORY 2_SCH=D, Cooling, 10634.80717, 11698.28789, 0.78879, 0.86767, VICTORIA INTL AP ANN CLG .4% CONDNS DB=>MWB, 7/21 16:15:00, 25.89200, 8.99833E-003, 297.00000, 39.61439, 0.82680, 0.00000
 Zone Sizing Information, ALL_ST=CLASSROOM/LECTURE HALL/TRAINING ROOM OTHER_FL=BUILDING STORY 2_SCH=D, Heating, 5119.98186, 6655.97642, 0.19588, 0.82680, VICTORIA INTL AP ANN HTG 99.6% CONDNS DB, 12/21 09:00:00, -4.00000, 2.70334E-003, 297.00000, 39.61439, 0.82680, 0.00000
 Zone Sizing Information, ALL_ST=CLASSROOM/LECTURE HALL/TRAINING ROOM OTHER_FL=BUILDING STORY 2_SCH=D 1, Cooling, 29465.98900, 32412.58790, 2.18577, 3.98368, VICTORIA INTL AP ANN CLG .4% CONDNS DB=>MWB, 7/21 12:45:00, 25.99300, 8.99833E-003, 1431.00000, 190.86934, 3.98368, 0.00000
 Zone Sizing Information, ALL_ST=CLASSROOM/LECTURE HALL/TRAINING ROOM OTHER_FL=BUILDING STORY 2_SCH=D 1, Heating, 16494.69332, 21443.10132, 0.62706, 3.98368, VICTORIA INTL AP ANN HTG 99.6% CONDNS DB, 12/21 09:00:00, -4.00000, 2.70334E-003, 1431.00000, 190.86934, 3.98368, 0.00000
 Zone Sizing Information, ALL_ST=CLASSROOM/LECTURE HALL/TRAINING ROOM OTHER_FL=BUILDING STORY 2_SCH=D 2, Cooling, 26742.43637, 29416.68001, 1.98372, 3.98368, VICTORIA INTL AP ANN CLG .4% CONDNS DB=>MWB, 7/21 12:00:00, 25.38700, 8.99832E-003, 1431.00000, 190.86934, 3.98368, 0.00000
 Zone Sizing Information, ALL_ST=CLASSROOM/LECTURE HALL/TRAINING ROOM OTHER_FL=BUILDING STORY 2_SCH=D 2, Heating, 16686.07096, 21691.89225, 0.63447, 3.98368, VICTORIA INTL AP ANN HTG 99.6% CONDNS DB, 12/21 09:00:00, -4.00000, 2.70334E-003, 1431.00000, 190.86934, 3.98368, 0.00000
 Zone Sizing Information, ALL_ST=CLASSROOM/LECTURE HALL/TRAINING ROOM OTHER_FL=BUILDING STORY 2_SCH=D 3, Cooling, 10746.22967, 11820.85263, 0.79705, 0.87676, VICTORIA INTL AP ANN CLG .4% CONDNS DB=>MWB, 7/21 16:15:00, 25.89200, 8.99833E-003, 297.00000, 39.61439, 0.82680, 0.00000
 Zone Sizing Information, ALL_ST=CLASSROOM/LECTURE HALL/TRAINING ROOM OTHER_FL=BUILDING STORY 2_SCH=D 3, Heating, 5091.27194, 6618.65352, 0.19477, 0.82680, VICTORIA INTL AP ANN HTG 99.6% CONDNS DB, 12/21 09:00:00, -4.00000, 2.70334E-003, 297.00000, 39.61439, 0.82680, 0.00000
 Zone Sizing Information, ALL_ST=CONFERENCE/MEETING/MULTI-PURPOSE ROOM_FL=BUILDING STORY 1_SCH=C, Cooling, 10762.73842, 11839.01227, 0.79853, 0.98268, VICTORIA INTL AP ANN CLG .4% CONDNS DB=>MWB, 7/21 17:00:00, 25.28600, 8.99833E-003, 624.00000, 124.84536, 0.98268, 0.00000
 Zone Sizing Information, ALL_ST=CONFERENCE/MEETING/MULTI-PURPOSE ROOM_FL=BUILDING STORY 1_SCH=C, Heating, 3045.33673, 3958.93775, 0.11422, 0.98268, VICTORIA INTL AP ANN HTG 99.6% CONDNS DB, 12/21 09:00:00, -4.00000, 2.70334E-003, 624.00000, 124.84536, 0.98268, 0.00000
 Zone Sizing Information, ALL_ST=FOOD PREPARATION AREA_FL=BUILDING STORY 1_SCH=B, Cooling, 4336.58807, 4770.24687, 0.30540, 0.33594, VICTORIA INTL AP ANN CLG .4% CONDNS DB=>MWB, 7/21 09:00:00, 21.14500, 8.99832E-003, 216.00000, 10.80392, 0.29627, 0.00000
 Zone Sizing Information, ALL_ST=FOOD PREPARATION AREA_FL=BUILDING STORY 1_SCH=B, Heating, 519.28829, 675.07478, 1.94796E-002, 0.29627, VICTORIA INTL AP ANN HTG 99.6% CONDNS DB, 12/21 10:00:00, -4.00000, 2.70334E-003, 216.00000, 10.80392, 0.29627, 0.00000
 Zone Sizing Information, ALL_ST=GYMNASIUM/FITNESS CENTRE PLAYING AREA_FL=BUILDING STORY 1_SCH=B, Cooling, 37175.41931, 40892.96124, 2.75707, 3.03277, VICTORIA INTL AP ANN CLG .4% CONDNS DB=>MWB, 7/21 13:00:00, 26.19500, 8.99832E-003, 1976.00000, 395.34362, 3.01142, 0.00000
 Zone Sizing Information, ALL_ST=GYMNASIUM/FITNESS CENTRE PLAYING AREA_FL=BUILDING STORY 1_SCH=B, Heating, 19027.04323, 24735.15620, 0.70288, 3.01142, VICTORIA INTL AP ANN HTG 99.6% CONDNS DB, 12/21 10:00:00, -4.00000, 2.70334E-003, 1976.00000, 395.34362, 3.01142, 0.00000
 Zone Sizing Information, ALL_ST=GYMNASIUM/FITNESS CENTRE PLAYING AREA_FL=BUILDING STORY 1_SCH=B 1, Cooling, 76163.18249, 83779.50074, 4.76382, 5.24021, VICTORIA INTL AP ANN CLG .4% CONDNS DB=>MWB, 7/21 09:00:00, 21.14500, 8.99832E-003, 1248.00000, 249.69071, 1.90195, 0.00000
 Zone Sizing Information, ALL_ST=GYMNASIUM/FITNESS CENTRE PLAYING AREA_FL=BUILDING STORY 1_SCH=B 1, Heating, 18027.51860, 23435.77418, 0.66963, 1.90195, VICTORIA INTL AP ANN HTG 99.6% CONDNS DB, 12/21 09:45:00, -4.00000, 2.70334E-003, 1248.00000, 249.69071, 1.90195, 0.00000
 Zone Sizing Information, ALL_ST=LIBRARY READING AREA_FL=BUILDING STORY 2_SCH=C, Cooling, 15790.64042, 17369.70446, 1.09678, 1.20646, VICTORIA INTL AP ANN CLG .4% CONDNS DB=>MWB, 7/21 08:00:00, 19.22600, 8.99833E-003, 840.00000, 42.01526, 0.72542, 0.00000
 Zone Sizing Information, ALL_ST=LIBRARY READING AREA_FL=BUILDING STORY 2_SCH=C, Heating, 7002.88169, 9103.74620, 0.26417, 0.72542, VICTORIA INTL AP ANN HTG 99.6% CONDNS DB, 12/21 09:00:00, -4.00000, 2.70334E-003, 840.00000, 42.01526, 0.72542, 0.00000
 Zone Sizing Information, ALL_ST=LOBBY - OTHER_FL=BUILDING STORY 1_SCH=C, Cooling, 2218.88844, 2440.77728, 0.16456, 0.86411, VICTORIA INTL AP ANN CLG .4% CONDNS DB=>MWB, 7/21 17:00:00, 25.28600, 8.99833E-003, 210.00000, 21.00763, 0.86411, 0.00000
 Zone Sizing Information, ALL_ST=LOBBY - OTHER_FL=BUILDING STORY 1_SCH=C, Heating, 1335.50811, 1736.16054, 5.04149E-002, 0.86411, VICTORIA INTL AP ANN HTG 99.6% CONDNS DB, 12/21 09:00:00, -4.00000, 2.70334E-003, 210.00000, 21.00763, 0.86411, 0.00000
 Zone Sizing Information, ALL_ST=LOBBY - OTHER_FL=BUILDING STORY 2_SCH=C, Cooling, 3334.82248, 3668.30473, 0.24730, 0.86411, VICTORIA INTL AP ANN CLG .4% CONDNS DB=>MWB, 7/21 13:30:00, 26.44750, 8.99833E-003, 210.00000, 21.00763, 0.86411, 0.00000
 Zone Sizing Information, ALL_ST=LOBBY - OTHER_FL=BUILDING STORY 2_SCH=C, Heating, 2058.87582, 2676.53856, 7.80080E-002, 0.86411, VICTORIA INTL AP ANN HTG 99.6% CONDNS DB, 12/21 09:00:00, -4.00000, 2.70334E-003, 210.00000, 21.00763, 0.86411, 0.00000
 Zone Sizing Information, ALL_ST=OFFICE ENCLOSED <= 25 M2_FL=BUILDING STORY 1_SCH=A, Cooling, 6536.23768, 7189.86145, 0.48462, 0.53308, VICTORIA INTL AP ANN CLG .4% CONDNS DB=>MWB, 7/21 10:00:00, 22.86200, 8.99833E-003, 532.00000, 26.60967, 0.22431, 0.00000
 Zone Sizing Information, ALL_ST=OFFICE ENCLOSED <= 25 M2_FL=BUILDING STORY 1_SCH=A, Heating, 3298.37140, 4287.88282, 0.12495, 0.22431, VICTORIA INTL AP ANN HTG 99.6% CONDNS DB, 12/21 08:00:00, -4.00000, 2.70334E-003, 532.00000, 26.60967, 0.22431, 0.00000
 Zone Sizing Information, ALL_ST=OFFICE ENCLOSED <= 25 M2_FL=BUILDING STORY 2_SCH=A, Cooling, 9328.38790, 10261.22669, 0.69169, 0.76086, VICTORIA INTL AP ANN CLG .4% CONDNS DB=>MWB, 7/21 12:00:00, 25.38700, 8.99832E-003, 532.00000, 26.60967, 0.22431, 0.00000
 Zone Sizing Information, ALL_ST=OFFICE ENCLOSED <= 25 M2_FL=BUILDING STORY 2_SCH=A, Heating, 5389.46936, 7006.31017, 0.20435, 0.26565, VICTORIA INTL AP ANN HTG 99.6% CONDNS DB, 12/21 08:00:00, -4.00000, 2.70334E-003, 532.00000, 26.60967, 0.22431, 0.00000
 Zone Sizing Information, WET_ST=WASHROOM - OTHER-SCH-D_FL=BUILDING STORY 1_SCHD, Cooling, 1461.36546, 1607.50201, 0.10835, 0.11918, VICTORIA INTL AP ANN CLG .4% CONDNS DB=>MWB, 7/21 16:00:00, 26.09400, 8.99832E-003, 210.00000, 7.00254, 6.40080E-002, 0.00000
 Zone Sizing Information, WET_ST=WASHROOM - OTHER-SCH-D_FL=BUILDING STORY 1_SCHD, Heating, 2079.44411, 2703.27734, 7.88572E-002, 0.10251, VICTORIA INTL AP ANN HTG 99.6% CONDNS DB, 12/21 09:00:00, -4.00000, 2.70334E-003, 210.00000, 7.00254, 6.40080E-002, 0.00000
 Zone Sizing Information, WET_ST=WASHROOM - OTHER-SCH-D_FL=BUILDING STORY 2_SCHD, Cooling, 2423.40302, 2665.74332, 0.17968, 0.19764, VICTORIA INTL AP ANN CLG .4% CONDNS DB=>MWB, 7/21 14:15:00, 26.70000, 8.99833E-003, 210.00000, 7.00254, 6.40080E-002, 0.00000
 Zone Sizing Information, WET_ST=WASHROOM - OTHER-SCH-D_FL=BUILDING STORY 2_SCHD, Heating, 2788.12587, 3624.56363, 0.10624, 0.13811, VICTORIA INTL AP ANN HTG 99.6% CONDNS DB, 12/21 09:00:00, -4.00000, 2.70334E-003, 210.00000, 7.00254, 6.40080E-002, 0.00000
 Zone Sizing Information, WILD_ST=CORRIDOR/TRANSITION AREA OTHER-SCH-D_FL=BUILDING STORY 1_SCH=D, Cooling, 7563.63330, 8319.99664, 0.56073, 0.61681, VICTORIA INTL AP ANN CLG .4% CONDNS DB=>MWB, 7/21 17:30:00, 24.78100, 8.99832E-003, 1140.00000, 11.40414, 0.34747, 0.00000
 Zone Sizing Information, WILD_ST=CORRIDOR/TRANSITION AREA OTHER-SCH-D_FL=BUILDING STORY 1_SCH=D, Heating, 7841.37323, 10193.78520, 0.29667, 0.38567, VICTORIA INTL AP ANN HTG 99.6% CONDNS DB, 12/21 09:00:00, -4.00000, 2.70334E-003, 1140.00000, 11.40414, 0.34747, 0.00000
[...]
 Component Sizing Information, Coil:Cooling:DX:SingleSpeed, COIL COOLING DX SINGLE SPEED 11 107KBTU/HR 9.44EER, Design Size Gross Rated Total Cooling Capacity [W], 15064.18574
 Component Sizing Information, Coil:Cooling:DX:SingleSpeed, COIL COOLING DX SINGLE SPEED 11 107KBTU/HR 9.44EER, Design Size Gross Rated Sensible Heat Ratio, 0.80021
 DX Cooling Coil Standard Rating Information, Coil:Cooling:DX:SingleSpeed, COIL COOLING DX SINGLE SPEED 11 107KBTU/HR 9.44EER, 14382.5, 2.72, 9.29, 9.81, 9.32
 Component Sizing Information, Coil:Heating:Electric, COIL HEATING ELECTRIC 11, Design Size Nominal Capacity [W], 48188.67139
 Component Sizing Information, Fan:VariableVolume, FAN VARIABLE VOLUME 6, Design Size Maximum Flow Rate [m3/s], 0.87676
 Component Sizing Information, HeatExchanger:AirToAir:SensibleAndLatent, SYS_3_PSZ ALL_ST=CONFERENCE/MEETING/MULTI-PURPOSE ROOM_FL=BUILDING STORY 1_SCH=C ERV, Design Size Nominal Supply Air Flow Rate [m3/s], 0.98268
 Component Sizing Information, Coil:Cooling:DX:SingleSpeed, COIL COOLING DX SINGLE SPEED 20 78KBTU/HR 9.44EER, Design Size Rated Air Flow Rate [m3/s], 0.98268
 Component Sizing Information, Coil:Cooling:DX:SingleSpeed, COIL COOLING DX SINGLE SPEED 20 78KBTU/HR 9.44EER, Design Size Gross Rated Total Cooling Capacity [W], 16293.85928
 Component Sizing Information, Coil:Cooling:DX:SingleSpeed, COIL COOLING DX SINGLE SPEED 20 78KBTU/HR 9.44EER, Design Size Gross Rated Sensible Heat Ratio, 0.80004
 DX Cooling Coil Standard Rating Information, Coil:Cooling:DX:SingleSpeed, COIL COOLING DX SINGLE SPEED 20 78KBTU/HR 9.44EER, 15530.0, 2.69, 9.18, 9.68, 9.18
 Component Sizing Information, Coil:Heating:Electric, COIL HEATING ELECTRIC 20, Design Size Nominal Capacity [W], 55763.02873
 Component Sizing Information, Fan:VariableVolume, FAN VARIABLE VOLUME 1, Design Size Maximum Flow Rate [m3/s], 0.98268
 Component Sizing Information, Coil:Cooling:DX:SingleSpeed, COIL COOLING DX SINGLE SPEED 18 38KBTU/HR 14.0SEER, Design Size Rated Air Flow Rate [m3/s], 0.33594
 Component Sizing Information, Coil:Cooling:DX:SingleSpeed, COIL COOLING DX SINGLE SPEED 18 38KBTU/HR 14.0SEER, Design Size Gross Rated Total Cooling Capacity [W], 5560.96382
 Component Sizing Information, Coil:Cooling:DX:SingleSpeed, COIL COOLING DX SINGLE SPEED 18 38KBTU/HR 14.0SEER, Design Size Gross Rated Sensible Heat Ratio, 0.80066
 DX Cooling Coil Standard Rating Information, Coil:Cooling:DX:SingleSpeed, COIL COOLING DX SINGLE SPEED 18 38KBTU/HR 14.0SEER, 5299.8, 3.09, 10.55, 11.12, 10.40
 Component Sizing Information, Coil:Heating:Electric, COIL HEATING ELECTRIC 18, Design Size Nominal Capacity [W], 17819.81605
 Component Sizing Information, Fan:VariableVolume, FAN VARIABLE VOLUME 19, Design Size Maximum Flow Rate [m3/s], 0.33594
 Component Sizing Information, HeatExchanger:AirToAir:SensibleAndLatent, SYS_3_PSZ ALL_ST=GYMNASIUM/FITNESS CENTRE PLAYING AREA_FL=BUILDING STORY 1_SCH=B ERV, Design Size Nominal Supply Air Flow Rate [m3/s], 3.01142
 Component Sizing Information, Coil:Cooling:DX:SingleSpeed, COIL COOLING DX SINGLE SPEED 15 319KBTU/HR 8.39EER, Design Size Rated Air Flow Rate [m3/s], 3.03277
 Component Sizing Information, Coil:Cooling:DX:SingleSpeed, COIL COOLING DX SINGLE SPEED 15 319KBTU/HR 8.39EER, Design Size Gross Rated Total Cooling Capacity [W], 53346.93340
 Component Sizing Information, Coil:Cooling:DX:SingleSpeed, COIL COOLING DX SINGLE SPEED 15 319KBTU/HR 8.39EER, Design Size Gross Rated Sensible Heat Ratio, 0.80099
 DX Cooling Coil Standard Rating Information, Coil:Cooling:DX:SingleSpeed, COIL COOLING DX SINGLE SPEED 15 319KBTU/HR 8.39EER, 50988.7, 2.57, 8.76, 9.26, 8.87
 Component Sizing Information, Coil:Heating:Electric, COIL HEATING ELECTRIC 15, Design Size Nominal Capacity [W], 171429.90988
 Component Sizing Information, Fan:VariableVolume, FAN VARIABLE VOLUME 4, Design Size Maximum Flow Rate [m3/s], 3.03277
 Component Sizing Information, Coil:Cooling:DX:SingleSpeed, COIL COOLING DX SINGLE SPEED 17 512KBTU/HR 8.39EER, Design Size Rated Air Flow Rate [m3/s], 5.24021
 Component Sizing Information, Coil:Cooling:DX:SingleSpeed, COIL COOLING DX SINGLE SPEED 17 512KBTU/HR 8.39EER, Design Size Gross Rated Total Cooling Capacity [W], 86744.03001
 Component Sizing Information, Coil:Cooling:DX:SingleSpeed, COIL COOLING DX SINGLE SPEED 17 512KBTU/HR 8.39EER, Design Size Gross Rated Sensible Heat Ratio, 0.80066
 DX Cooling Coil Standard Rating Information, Coil:Cooling:DX:SingleSpeed, COIL COOLING DX SINGLE SPEED 17 512KBTU/HR 8.39EER, 82670.7, 2.63, 8.99, 9.49, 9.01
 Component Sizing Information, Coil:Heating:Electric, COIL HEATING ELECTRIC 17, Design Size Nominal Capacity [W], 194872.44781
 Component Sizing Information, Fan:VariableVolume, FAN VARIABLE VOLUME 3, Design Size Maximum Flow Rate [m3/s], 5.24021
 Component Sizing Information, Coil:Cooling:DX:SingleSpeed, COIL COOLING DX SINGLE SPEED 13 130KBTU/HR 9.44EER, Design Size Rated Air Flow Rate [m3/s], 1.20646
 Component Sizing Information, Coil:Cooling:DX:SingleSpeed, COIL COOLING DX SINGLE SPEED 13 130KBTU/HR 9.44EER, Design Size Gross Rated Total Cooling Capacity [W], 19971.16902
 Component Sizing Information, Coil:Cooling:DX:SingleSpeed, COIL COOLING DX SINGLE SPEED 13 130KBTU/HR 9.44EER, Design Size Gross Rated Sensible Heat Ratio, 0.80066
 DX Cooling Coil Standard Rating Information, Coil:Cooling:DX:SingleSpeed, COIL COOLING DX SINGLE SPEED 13 130KBTU/HR 9.44EER, 19033.4, 2.72, 9.27, 9.78, 9.27
 Component Sizing Information, Coil:Heating:Electric, COIL HEATING ELECTRIC 13, Design Size Nominal Capacity [W], 53402.87688
 Component Sizing Information, Fan:VariableVolume, FAN VARIABLE VOLUME 5, Design Size Maximum Flow Rate [m3/s], 1.20646
 Component Sizing Information, HeatExchanger:AirToAir:SensibleAndLatent, SYS_3_PSZ ALL_ST=LOBBY - OTHER_FL=BUILDING STORY 1_SCH=C ERV, Design Size Nominal Supply Air Flow Rate [m3/s], 0.86411
 Component Sizing Information, Coil:Cooling:DX:SingleSpeed, COIL COOLING DX SINGLE SPEED 3 51KBTU/HR 14.0SEER, Design Size Rated Air Flow Rate [m3/s], 0.86411
 Component Sizing Information, Coil:Cooling:DX:SingleSpeed, COIL COOLING DX SINGLE SPEED 3 51KBTU/HR 14.0SEER, Design Size Gross Rated Total Cooling Capacity [W], 14327.88185
 Component Sizing Information, Coil:Cooling:DX:SingleSpeed, COIL COOLING DX SINGLE SPEED 3 51KBTU/HR 14.0SEER, Design Size Gross Rated Sensible Heat Ratio, 0.80004
 DX Cooling Coil Standard Rating Information, Coil:Cooling:DX:SingleSpeed, COIL COOLING DX SINGLE SPEED 3 51KBTU/HR 14.0SEER, 13656.2, 3.09, 10.56, 11.13, 10.40
 Component Sizing Information, Coil:Heating:Electric, COIL HEATING ELECTRIC 3, Design Size Nominal Capacity [W], 49034.79728
 Component Sizing Information, Fan:VariableVolume, FAN VARIABLE VOLUME 12, Design Size Maximum Flow Rate [m3/s], 0.86411
 Component Sizing Information, HeatExchanger:AirToAir:SensibleAndLatent, SYS_3_PSZ ALL_ST=LOBBY - OTHER_FL=BUILDING STORY 2_SCH=C ERV, Design Size Nominal Supply Air Flow Rate [m3/s], 0.86411
 Component Sizing Information, Coil:Cooling:DX:SingleSpeed, COIL COOLING DX SINGLE SPEED 4 51KBTU/HR 14.0SEER, Design Size Rated Air Flow Rate [m3/s], 0.86411
 Component Sizing Information, Coil:Cooling:DX:SingleSpeed, COIL COOLING DX SINGLE SPEED 4 51KBTU/HR 14.0SEER, Design Size Gross Rated Total Cooling Capacity [W], 15426.28377
 Component Sizing Information, Coil:Cooling:DX:SingleSpeed, COIL COOLING DX SINGLE SPEED 4 51KBTU/HR 14.0SEER, Design Size Gross Rated Sensible Heat Ratio, 0.80091
 DX Cooling Coil Standard Rating Information, Coil:Cooling:DX:SingleSpeed, COIL COOLING DX SINGLE SPEED 4 51KBTU/HR 14.0SEER, 14754.3, 3.14, 10.71, 11.29, 10.63
 Component Sizing Information, Coil:Heating:Electric, COIL HEATING ELECTRIC 4, Design Size Nominal Capacity [W], 49034.79728
 Component Sizing Information, Fan:VariableVolume, FAN VARIABLE VOLUME 15, Design Size Maximum Flow Rate [m3/s], 0.86411
 Component Sizing Information, Coil:Cooling:DX:SingleSpeed, COIL COOLING DX SINGLE SPEED 14 81KBTU/HR 9.44EER, Design Size Rated Air Flow Rate [m3/s], 0.53308
 Component Sizing Information, Coil:Cooling:DX:SingleSpeed, COIL COOLING DX SINGLE SPEED 14 81KBTU/HR 9.44EER, Design Size Gross Rated Total Cooling Capacity [W], 8824.41000
 Component Sizing Information, Coil:Cooling:DX:SingleSpeed, COIL COOLING DX SINGLE SPEED 14 81KBTU/HR 9.44EER, Design Size Gross Rated Sensible Heat Ratio, 0.80066
 DX Cooling Coil Standard Rating Information, Coil:Cooling:DX:SingleSpeed, COIL COOLING DX SINGLE SPEED 14 81KBTU/HR 9.44EER, 8410.0, 2.69, 9.18, 9.69, 9.19
 Component Sizing Information, Coil:Heating:Electric, COIL HEATING ELECTRIC 14, Design Size Nominal Capacity [W], 20578.19177
 Component Sizing Information, Fan:VariableVolume, FAN VARIABLE VOLUME 7, Design Size Maximum Flow Rate [m3/s], 0.53308
 Component Sizing Information, Coil:Cooling:DX:SingleSpeed, COIL COOLING DX SINGLE SPEED 19 120KBTU/HR 9.44EER, Design Size Rated Air Flow Rate [m3/s], 0.76086
 Component Sizing Information, Coil:Cooling:DX:SingleSpeed, COIL COOLING DX SINGLE SPEED 19 120KBTU/HR 9.44EER, Design Size Gross Rated Total Cooling Capacity [W], 12594.92107
 Component Sizing Information, Coil:Cooling:DX:SingleSpeed, COIL COOLING DX SINGLE SPEED 19 120KBTU/HR 9.44EER, Design Size Gross Rated Sensible Heat Ratio, 0.80066
 DX Cooling Coil Standard Rating Information, Coil:Cooling:DX:SingleSpeed, COIL COOLING DX SINGLE SPEED 19 120KBTU/HR 9.44EER, 12003.5, 2.71, 9.25, 9.76, 9.25
 Component Sizing Information, Coil:Heating:Electric, COIL HEATING ELECTRIC 19, Design Size Nominal Capacity [W], 26378.22307
 Component Sizing Information, Fan:VariableVolume, FAN VARIABLE VOLUME 2, Design Size Maximum Flow Rate [m3/s], 0.76086
 Component Sizing Information, Coil:Cooling:DX:SingleSpeed, COIL COOLING DX SINGLE SPEED 1 43KBTU/HR 14.0SEER, Design Size Rated Air Flow Rate [m3/s], 0.31683
 Component Sizing Information, Coil:Cooling:DX:SingleSpeed, COIL COOLING DX SINGLE SPEED 1 43KBTU/HR 14.0SEER, Design Size Gross Rated Total Cooling Capacity [W], 5349.77660
 Component Sizing Information, Coil:Cooling:DX:SingleSpeed, COIL COOLING DX SINGLE SPEED 1 43KBTU/HR 14.0SEER, Design Size Gross Rated Sensible Heat Ratio, 0.80043
 DX Cooling Coil Standard Rating Information, Coil:Cooling:DX:SingleSpeed, COIL COOLING DX SINGLE SPEED 1 43KBTU/HR 14.0SEER, 5103.5, 3.11, 10.60, 11.17, 10.46
 Component Sizing Information, Coil:Heating:Electric, COIL HEATING ELECTRIC 1, Design Size Nominal Capacity [W], 12068.50523
 Component Sizing Information, Fan:VariableVolume, FAN VARIABLE VOLUME 17, Design Size Maximum Flow Rate [m3/s], 0.31683
 Component Sizing Information, Coil:Cooling:DX:SingleSpeed, COIL COOLING DX SINGLE SPEED 2 494KBTU/HR 8.39EER, Design Size Rated Air Flow Rate [m3/s], 3.37546
 Component Sizing Information, Coil:Cooling:DX:SingleSpeed, COIL COOLING DX SINGLE SPEED 2 494KBTU/HR 8.39EER, Design Size Gross Rated Total Cooling Capacity [W], 55875.84742
 Component Sizing Information, Coil:Cooling:DX:SingleSpeed, COIL COOLING DX SINGLE SPEED 2 494KBTU/HR 8.39EER, Design Size Gross Rated Sensible Heat Ratio, 0.80066
 DX Cooling Coil Standard Rating Information, Coil:Cooling:DX:SingleSpeed, COIL COOLING DX SINGLE SPEED 2 494KBTU/HR 8.39EER, 53252.0, 2.63, 8.96, 9.46, 8.99
 Component Sizing Information, Coil:Heating:Electric, COIL HEATING ELECTRIC 2, Design Size Nominal Capacity [W], 132473.03377
 Component Sizing Information, Fan:VariableVolume, FAN VARIABLE VOLUME 9, Design Size Maximum Flow Rate [m3/s], 3.37546
 Component Sizing Information, Coil:WaterHeating:AirToWaterHeatPump:Pumped, COIL WATER HEATING AIR TO WATER HEAT PUMP 1, Design Size Rated Evaporator Air Flow Rate [m3/s], 22.35169
 Component Sizing Information, Coil:WaterHeating:AirToWaterHeatPump:Pumped, COIL WATER HEATING AIR TO WATER HEAT PUMP 1, Design Size Rated Condenser Water Flow Rate [m3/s], 1.99190E-002
 Component Sizing Information, Fan:OnOff, FAN ON OFF 1, Design Size Maximum Flow Rate [m3/s], 22.35169
Heat Pump Water Heater Information,WaterHeater:HeatPump:PumpedCondenser,536GAL ELECTRICITY WATER HEATER - 1515KBTU/HR 1.0 THERM EFF ASHPWH,2.0282,363005.2,1.008,1.5493,283128
 Component Sizing Information, WaterHeater:HeatPump:PumpedCondenser, 536GAL ELECTRICITY WATER HEATER - 1515KBTU/HR 1.0 THERM EFF ASHPWH, Condenser water flow rate [m3/s], 1.99190E-002
 Component Sizing Information, WaterHeater:HeatPump:PumpedCondenser, 536GAL ELECTRICITY WATER HEATER - 1515KBTU/HR 1.0 THERM EFF ASHPWH, Evaporator air flow rate [m3/s], 22.35169
 Component Sizing Information, PlantLoop, MAIN SERVICE WATER LOOP, Maximum Loop Flow Rate [m3/s], 7.40089E-004
 Component Sizing Information, PlantLoop, MAIN SERVICE WATER LOOP, Plant Loop Volume [m3], 8.88106E-002
 Component Sizing Information, Pump:ConstantSpeed, SERVICE WATER LOOP PUMP, Design Flow Rate [m3/s], 7.40089E-004
 Component Sizing Information, Pump:ConstantSpeed, SERVICE WATER LOOP PUMP, Design Power Consumption [W], 1174.27378
 Component Sizing Information, WaterHeater:Mixed, 536GAL ELECTRICITY WATER HEATER - 1515KBTU/HR 1.0 THERM EFF, Use Side Design Flow Rate [m3/s], 7.40089E-004
! <Environment>,Environment Name,Environment Type, Start Date, End Date, Start DayOfWeek, Duration {#days}, Source:Start DayOfWeek,  Use Daylight Saving, Use Holidays, Apply Weekend Holiday Rule,  Use Rain Values, Use Snow Values
! <Environment:Special Days>, Special Day Name, Special Day Type, Source, Start Date, Duration {#days}
! <Environment:Daylight Saving>, Daylight Saving Indicator, Source, Start Date, End Date
! <Environment:WarmupDays>, NumberofWarmupDays
Environment,RUN PERIOD 1,WeatherFileRunPeriod,01/01,12/31,Sunday,365,Use RunPeriod Specified Day,No,No,No,Yes,Yes
Environment:Daylight Saving,No,RunPeriod Object
Environment:WarmupDays, 11
! <Tabular Report>,Style,Unit Conversion
Tabular Report,HTML,None
! <Warmup Convergence Information>,Zone Name,Environment Type/Name,Average Warmup Temperature Difference {deltaC},Std Dev Warmup Temperature Difference {deltaC},Max Temperature Pass/Fail Convergence,Min Temperature Pass/Fail Convergence,Average Warmup Load Difference {W},Std Dev Warmup Load Difference {W},Heating Load Pass/Fail Convergence,Cooling Load Pass/Fail Convergence
 Warmup Convergence Information,ALL_ST=AUDIENCE SEATING AREA PERMANENT - AUDITORIUM_FL=BUILDING STORY 1_SCH=C,RunPeriod: RUN PERIOD 1,0.1446825783,0.2514130861,Pass,Pass,0.6752314514,2.0097972399,Pass,Pass
 Warmup Convergence Information,ALL_ST=CLASSROOM/LECTURE HALL/TRAINING ROOM OTHER_FL=BUILDING STORY 1_SCH=D,RunPeriod: RUN PERIOD 1,0.1063321960,9.6287696437E-002,Pass,Pass,0.0000000000,0.0000000000,Pass,Pass
 Warmup Convergence Information,ALL_ST=CLASSROOM/LECTURE HALL/TRAINING ROOM OTHER_FL=BUILDING STORY 1_SCH=D 1,RunPeriod: RUN PERIOD 1,3.9560118146E-003,5.4799310715E-003,Pass,Pass,6.7423932713E-002,0.1453894897,Pass,Pass
 Warmup Convergence Information,ALL_ST=CLASSROOM/LECTURE HALL/TRAINING ROOM OTHER_FL=BUILDING STORY 1_SCH=D 2,RunPeriod: RUN PERIOD 1,6.3767367079E-002,6.7348365677E-002,Pass,Pass,0.0000000000,0.0000000000,Pass,Pass
 Warmup Convergence Information,ALL_ST=CLASSROOM/LECTURE HALL/TRAINING ROOM OTHER_FL=BUILDING STORY 1_SCH=D 3,RunPeriod: RUN PERIOD 1,2.5720040985E-002,5.2024079613E-002,Pass,Pass,8.2233866357E-002,0.2432091872,Pass,Pass
 Warmup Convergence Information,ALL_ST=CLASSROOM/LECTURE HALL/TRAINING ROOM OTHER_FL=BUILDING STORY 2_SCH=D,RunPeriod: RUN PERIOD 1,4.0396382397E-002,9.0252578199E-002,Pass,Pass,7.8114895913E-002,0.2411533704,Pass,Pass
 Warmup Convergence Information,ALL_ST=CLASSROOM/LECTURE HALL/TRAINING ROOM OTHER_FL=BUILDING STORY 2_SCH=D 1,RunPeriod: RUN PERIOD 1,0.1668459572,0.1761247572,Pass,Pass,1.9395082662E-002,8.0705494891E-002,Pass,Pass
 Warmup Convergence Information,ALL_ST=CLASSROOM/LECTURE HALL/TRAINING ROOM OTHER_FL=BUILDING STORY 2_SCH=D 2,RunPeriod: RUN PERIOD 1,7.5252112354E-003,1.8641543998E-002,Pass,Pass,9.9698626773E-002,0.3729540962,Pass,Pass
 Warmup Convergence Information,ALL_ST=CLASSROOM/LECTURE HALL/TRAINING ROOM OTHER_FL=BUILDING STORY 2_SCH=D 3,RunPeriod: RUN PERIOD 1,0.1822122881,0.1928985087,Pass,Pass,2.7852050695E-002,9.4113785754E-002,Pass,Pass
 Warmup Convergence Information,ALL_ST=CONFERENCE/MEETING/MULTI-PURPOSE ROOM_FL=BUILDING STORY 1_SCH=C,RunPeriod: RUN PERIOD 1,7.4204022754E-002,9.0912514730E-002,Pass,Pass,7.1662394880E-002,0.1681402383,Pass,Pass
 Warmup Convergence Information,ALL_ST=FOOD PREPARATION AREA_FL=BUILDING STORY 1_SCH=B,RunPeriod: RUN PERIOD 1,0.1030508393,0.1130603355,Pass,Pass,0.4587926924,1.3843764893,Pass,Pass
 Warmup Convergence Information,ALL_ST=GYMNASIUM/FITNESS CENTRE PLAYING AREA_FL=BUILDING STORY 1_SCH=B,RunPeriod: RUN PERIOD 1,0.1387483563,0.2036291879,Pass,Pass,1.3525697726,6.2802078670,Pass,Pass
 Warmup Convergence Information,ALL_ST=GYMNASIUM/FITNESS CENTRE PLAYING AREA_FL=BUILDING STORY 1_SCH=B 1,RunPeriod: RUN PERIOD 1,0.1369371282,0.2449212850,Pass,Pass,4.8833574771,32.6815458440,Pass,Pass
 Warmup Convergence Information,ALL_ST=LIBRARY READING AREA_FL=BUILDING STORY 2_SCH=C,RunPeriod: RUN PERIOD 1,0.1076106939,0.1288059000,Pass,Pass,2.1889385983,15.5853244203,Pass,Pass
 Warmup Convergence Information,ALL_ST=LOBBY - OTHER_FL=BUILDING STORY 1_SCH=C,RunPeriod: RUN PERIOD 1,0.1020231489,9.7876195777E-002,Pass,Pass,0.2325876661,0.9052943322,Pass,Pass
 Warmup Convergence Information,ALL_ST=LOBBY - OTHER_FL=BUILDING STORY 2_SCH=C,RunPeriod: RUN PERIOD 1,0.1182917965,0.1486971705,Pass,Pass,0.5205924982,1.7554913674,Pass,Pass
 Warmup Convergence Information,ALL_ST=OFFICE ENCLOSED <= 25 M2_FL=BUILDING STORY 1_SCH=A,RunPeriod: RUN PERIOD 1,7.8062221522E-002,5.8879996786E-002,Pass,Pass,0.0000000000,0.0000000000,Pass,Pass
 Warmup Convergence Information,ALL_ST=OFFICE ENCLOSED <= 25 M2_FL=BUILDING STORY 2_SCH=A,RunPeriod: RUN PERIOD 1,0.1503878469,0.1377828342,Pass,Pass,0.0000000000,0.0000000000,Pass,Pass
 Warmup Convergence Information,WET_ST=WASHROOM - OTHER-SCH-D_FL=BUILDING STORY 1_SCHD,RunPeriod: RUN PERIOD 1,1.3123496198E-002,1.2491781693E-002,Pass,Pass,3.3019375665E-002,0.1063537576,Pass,Pass
 Warmup Convergence Information,WET_ST=WASHROOM - OTHER-SCH-D_FL=BUILDING STORY 2_SCHD,RunPeriod: RUN PERIOD 1,1.7535946624E-002,2.8444713943E-002,Pass,Pass,8.1220132824E-002,0.2406236533,Pass,Pass
 Warmup Convergence Information,WILD_ST=CORRIDOR/TRANSITION AREA OTHER-SCH-D_FL=BUILDING STORY 1_SCH=D,RunPeriod: RUN PERIOD 1,1.6951436926E-002,1.2622047102E-002,Pass,Pass,0.0000000000,0.0000000000,Pass,Pass
 Warmup Convergence Information,WILD_ST=CORRIDOR/TRANSITION AREA OTHER-SCH-D_FL=BUILDING STORY 1_SCH=D 1,RunPeriod: RUN PERIOD 1,2.3121085100E-002,1.5893643865E-002,Pass,Pass,0.0000000000,0.0000000000,Pass,Pass
 Warmup Convergence Information,WILD_ST=CORRIDOR/TRANSITION AREA OTHER-SCH-D_FL=BUILDING STORY 2_SCH=D,RunPeriod: RUN PERIOD 1,4.7335798229E-002,4.1354906273E-002,Pass,Pass,3.4722127212E-002,0.1329587985,Pass,Pass
 Warmup Convergence Information,WILD_ST=CORRIDOR/TRANSITION AREA OTHER-SCH-D_FL=BUILDING STORY 2_SCH=D 1,RunPeriod: RUN PERIOD 1,6.7245958616E-002,7.0255319288E-002,Pass,Pass,3.8071481614E-002,0.1082206618,Pass,Pass
 Warmup Convergence Information,WILD_ST=ELECTRICAL/MECHANICAL ROOM-SCH-D_FL=BUILDING STORY 1_SCH=D,RunPeriod: RUN PERIOD 1,3.3064293595E-002,2.2358909523E-002,Pass,Pass,0.0000000000,0.0000000000,Pass,Pass
 Warmup Convergence Information,WILD_ST=ELECTRICAL/MECHANICAL ROOM-SCH-D_FL=BUILDING STORY 2_SCH=D,RunPeriod: RUN PERIOD 1,6.0730059801E-002,4.7008172903E-002,Pass,Pass,0.0000000000,0.0000000000,Pass,Pass
! <Program Control Information:Threads/Parallel Sims>, Threading Supported,Maximum Number of Threads, Env Set Threads (OMP_NUM_THREADS), EP Env Set Threads (EP_OMP_NUM_THREADS), IDF Set Threads, Number of Threads Used (Interior Radiant Exchange), Number Nominal Surfaces, Number Parallel Sims
Program Control:Threads/Parallel Sims, No,1, N/A, N/A, N/A, N/A, N/A, N/A
End of Data
