Program Version,EnergyPlus, Version 8.9.0-eba93e8e1b, YMD=2018.11.01 15:55
! <Version>, Version ID
 Version, 8.9
! <Timesteps per Hour>, #TimeSteps, Minutes per TimeStep {minutes}
 Timesteps per Hour,  6, 10
! <System Convergence Limits>, Minimum System TimeStep {minutes}, Max HVAC Iterations, Minimum Plant Iterations, Maximum Plant Iterations
 System Convergence Limits, 1, 20, 2, 8
! <Simulation Control>, Do Zone Sizing, Do System Sizing, Do Plant Sizing, Do Design Days, Do Weather Simulation, Do HVAC Sizing Simulation
 Simulation Control, Yes, Yes, Yes, Yes, No, No
! <Output Reporting Tolerances>, Tolerance for Time Heating Setpoint Not Met, Tolerance for Zone Cooling Setpoint Not Met Time
 Output Reporting Tolerances, 0.200, 0.200, 
! <Site:GroundTemperature:BuildingSurface>,Jan{C},Feb{C},Mar{C},Apr{C},May{C},Jun{C},Jul{C},Aug{C},Sep{C},Oct{C},Nov{C},Dec{C}
 Site:GroundTemperature:BuildingSurface,  18.00,  18.00,  18.00,  18.00,  18.00,  18.00,  18.00,  18.00,  18.00,  18.00,  18.00,  18.00
! <Site:GroundTemperature:FCfactorMethod>,Jan{C},Feb{C},Mar{C},Apr{C},May{C},Jun{C},Jul{C},Aug{C},Sep{C},Oct{C},Nov{C},Dec{C}
 Site:GroundTemperature:FCfactorMethod, -21.09, -22.83, -19.75, -14.93,  -2.32,   7.41,  13.97,  15.97,  12.57,   5.01,  -5.08, -14.45
! <Site:GroundTemperature:Shallow>,Jan{C},Feb{C},Mar{C},Apr{C},May{C},Jun{C},Jul{C},Aug{C},Sep{C},Oct{C},Nov{C},Dec{C}
 Site:GroundTemperature:Shallow,  13.00,  13.00,  13.00,  13.00,  13.00,  13.00,  13.00,  13.00,  13.00,  13.00,  13.00,  13.00
! <Site:GroundTemperature:Deep>,Jan{C},Feb{C},Mar{C},Apr{C},May{C},Jun{C},Jul{C},Aug{C},Sep{C},Oct{C},Nov{C},Dec{C}
 Site:GroundTemperature:Deep,  16.00,  16.00,  16.00,  16.00,  16.00,  16.00,  16.00,  16.00,  16.00,  16.00,  16.00,  16.00
! <Site:GroundReflectance>,Jan{dimensionless},Feb{dimensionless},Mar{dimensionless},Apr{dimensionless},May{dimensionless},Jun{dimensionless},Jul{dimensionless},Aug{dimensionless},Sep{dimensionless},Oct{dimensionless},Nov{dimensionless},Dec{dimensionless}
 Site:GroundReflectance,  0.20,  0.20,  0.20,  0.20,  0.20,  0.20,  0.20,  0.20,  0.20,  0.20,  0.20,  0.20
! <Site:GroundReflectance:SnowModifier>, Normal, Daylighting {dimensionless}
 Site:GroundReflectance:SnowModifier,   1.000,   1.000
! <Site:GroundReflectance:Snow>,Jan{dimensionless},Feb{dimensionless},Mar{dimensionless},Apr{dimensionless},May{dimensionless},Jun{dimensionless},Jul{dimensionless},Aug{dimensionless},Sep{dimensionless},Oct{dimensionless},Nov{dimensionless},Dec{dimensionless}
 Site:GroundReflectance:Snow,  0.20,  0.20,  0.20,  0.20,  0.20,  0.20,  0.20,  0.20,  0.20,  0.20,  0.20,  0.20
! <Site:GroundReflectance:Snow:Daylighting>,Jan{dimensionless},Feb{dimensionless},Mar{dimensionless},Apr{dimensionless},May{dimensionless},Jun{dimensionless},Jul{dimensionless},Aug{dimensionless},Sep{dimensionless},Oct{dimensionless},Nov{dimensionless},Dec{dimensionless}
 Site:GroundReflectance:Snow:Daylighting,  0.20,  0.20,  0.20,  0.20,  0.20,  0.20,  0.20,  0.20,  0.20,  0.20,  0.20,  0.20
! <Environment:Weather Station>,Wind Sensor Height Above Ground {m},Wind Speed Profile Exponent {},Wind Speed Profile Boundary Layer Thickness {m},Air Temperature Sensor Height Above Ground {m},Wind Speed Modifier Coefficient-Internal,Temperature Modifier Coefficient-Internal
Environment:Weather Station,10.000,0.140,270.000,1.500,1.586,9.750E-003
! <Site:Location>, Location Name, Latitude {N+/S- Deg}, Longitude {E+/W- Deg},  Time Zone Number {GMT+/-}, Elevation {m},  Standard Pressure at Elevation {Pa}, Standard RhoAir at Elevation
Site:Location,Yellowknife AP NT CAN CWEC2016 WMO#=719360,62.46,-114.44,-7.00,205.70,98878,1.1752
! <Building Information>, Building Name,North Axis {deg},Terrain,  Loads Convergence Tolerance Value,Temperature Convergence Tolerance Value,  Solar Distribution,Maximum Number of Warmup Days,Minimum Number of Warmup Days
 Building Information,SmallOffice-CAN_NT_Yellowknife.AP.719360_CWEC2016.epw created: 2018-11-01 15:55:19 +0000,0.000,City,4.00000E-002,0.20000,FullInteriorAndExterior,25,6
! <Inside Convection Algorithm>, Algorithm {Simple | TARP | CeilingDiffuser | AdaptiveConvectionAlgorithm}
Inside Convection Algorithm,TARP
! <Outside Convection Algorithm>, Algorithm {SimpleCombined | TARP | MoWitt | DOE-2 | AdaptiveConvectionAlgorithm}
Outside Convection Algorithm,TARP
! <Sky Radiance Distribution>, Value {Anisotropic}
Sky Radiance Distribution,Anisotropic
! <Zone Air Solution Algorithm>, Value {ThirdOrderBackwardDifference | AnalyticalSolution | EulerMethod}
 Zone Air Solution Algorithm, ThirdOrderBackwardDifference
! <Zone Air Carbon Dioxide Balance Simulation>, Simulation {Yes/No}, Carbon Dioxide Concentration
 Zone Air Carbon Dioxide Balance Simulation, No,N/A
! <Zone Air Generic Contaminant Balance Simulation>, Simulation {Yes/No}, Generic Contaminant Concentration
 Zone Air Generic Contaminant Balance Simulation, No,N/A
! <Zone Air Mass Flow Balance Simulation>, Enforce Mass Balance, Adjust Zone Mixing, Adjust Zone Infiltration {AddInfiltration | AdjustInfiltration | None}, Infiltration Zones {MixingSourceZonesOnly | AllZones}
 Zone Air Mass Flow Balance Simulation, No,N/A,N/A,N/A
! <HVACSystemRootFindingAlgorithm>, Value {RegulaFalsi | Bisection | BisectionThenRegulaFalsi | RegulaFalsiThenBisection}
 HVACSystemRootFindingAlgorithm, RegulaFalsi
! <Environment:Site Atmospheric Variation>,Wind Speed Profile Exponent {},Wind Speed Profile Boundary Layer Thickness {m},Air Temperature Gradient Coefficient {K/m}
Environment:Site Atmospheric Variation,0.330,460.000,6.500000E-003
! <Surface Geometry>,Starting Corner,Vertex Input Direction,Coordinate System,Daylight Reference Point Coordinate System,Rectangular (Simple) Surface Coordinate System
 Surface Geometry,UpperLeftCorner,Counterclockwise,RelativeCoordinateSystem,RelativeCoordinateSystem,RelativeToZoneOrigin
! <Surface Heat Transfer Algorithm>, Value {CTF - ConductionTransferFunction | EMPD - MoisturePenetrationDepthConductionTransferFunction | CondFD - ConductionFiniteDifference | HAMT - CombinedHeatAndMoistureFiniteElement} - Description,Inside Surface Max Temperature Limit{C}, Surface Convection Coefficient Lower Limit {W/m2-K}, Surface Convection Coefficient Upper Limit {W/m2-K}
Surface Heat Transfer Algorithm, CTF - ConductionTransferFunction,200,0.10,1000.0
! <Shading Summary>, Number of Fixed Detached Shades, Number of Building Detached Shades, Number of Attached Shades
 Shading Summary,0,0,0
! <Zone Summary>, Number of Zones, Number of Zone Surfaces, Number of SubSurfaces
 Zone Summary,6,64,21
! <Zone Information>,Zone Name,North Axis {deg},Origin X-Coordinate {m},Origin Y-Coordinate {m},Origin Z-Coordinate {m},Centroid X-Coordinate {m},Centroid Y-Coordinate {m},Centroid Z-Coordinate {m},Type,Zone Multiplier,Zone List Multiplier,Minimum X {m},Maximum X {m},Minimum Y {m},Maximum Y {m},Minimum Z {m},Maximum Z {m},Ceiling Height {m},Volume {m3},Zone Inside Convection Algorithm {Simple-Detailed-CeilingDiffuser-TrombeWall},Zone Outside Convection Algorithm {Simple-Detailed-Tarp-MoWitt-DOE-2-BLAST}, Floor Area {m2},Exterior Gross Wall Area {m2},Exterior Net Wall Area {m2},Exterior Window Area {m2}, Number of Surfaces, Number of SubSurfaces, Number of Shading SubSurfaces,  Part of Total Building Area
 Zone Information, ATTIC ZN,0.0,0.00,0.00,0.00,13.85,9.23,3.70,1,1,1,-0.60,28.29,-0.60,19.06,3.05,6.33,1.64,720.19,TARP,TARP,567.98,0.00,0.00,0.00,13,0,0,No
 Zone Information, CORE_ZN ZN,0.0,0.00,0.00,0.00,13.85,9.23,1.53,1,1,1,5.00,22.69,5.00,13.46,0.00,3.05,3.05,456.46,TARP,TARP,149.66,0.00,0.00,0.00,6,0,0,Yes
 Zone Information, PERIMETER_ZN_1 ZN,0.0,0.00,0.00,0.00,13.85,2.21,1.53,1,1,1,0.00,27.69,0.00,5.00,0.00,3.05,3.05,346.02,TARP,TARP,113.45,84.45,64.98,15.79,6,7,0,Yes
 Zone Information, PERIMETER_ZN_2 ZN,0.0,0.00,0.00,0.00,25.64,9.23,1.53,1,1,1,22.69,27.69,0.00,18.46,0.00,3.05,3.05,205.27,TARP,TARP,67.30,56.30,45.78,10.52,6,4,0,Yes
 Zone Information, PERIMETER_ZN_3 ZN,0.0,0.00,0.00,0.00,13.85,16.25,1.53,1,1,1,0.00,27.69,13.46,18.46,0.00,3.05,3.05,346.02,TARP,TARP,113.45,84.45,68.67,15.79,6,6,0,Yes
 Zone Information, PERIMETER_ZN_4 ZN,0.0,0.00,0.00,0.00,2.05,9.23,1.53,1,1,1,0.00,5.00,0.00,18.46,0.00,3.05,3.05,205.27,TARP,TARP,67.30,56.30,45.78,10.52,6,4,0,Yes
! <Zone Internal Gains Nominal>,Zone Name, Floor Area {m2},# Occupants,Area per Occupant {m2/person},Occupant per Area {person/m2},Interior Lighting {W/m2},Electric Load {W/m2},Gas Load {W/m2},Other Load {W/m2},Hot Water Eq {W/m2},Steam Equipment {W/m2},Sum Loads per Area {W/m2},Outdoor Controlled Baseboard Heat
 Zone Internal Gains Nominal, ATTIC ZN,567.98,0.0,N/A,0.000,0.000,0.000,0.000,0.000,0.000,0.000,0.000,No
 Zone Internal Gains Nominal, CORE_ZN ZN,149.66,7.5,19.993,5.002E-002,12.004,7.503,0.000,0.000,0.000,0.000,19.507,No
 Zone Internal Gains Nominal, PERIMETER_ZN_1 ZN,113.45,5.7,19.993,5.002E-002,12.004,7.503,0.000,0.000,0.000,0.000,19.507,No
 Zone Internal Gains Nominal, PERIMETER_ZN_2 ZN,67.30,3.4,19.993,5.002E-002,12.004,7.503,0.000,0.000,0.000,0.000,19.507,No
 Zone Internal Gains Nominal, PERIMETER_ZN_3 ZN,113.45,5.7,19.993,5.002E-002,12.004,7.503,0.000,0.000,0.000,0.000,19.507,No
 Zone Internal Gains Nominal, PERIMETER_ZN_4 ZN,67.30,3.4,19.993,5.002E-002,12.004,7.503,0.000,0.000,0.000,0.000,19.507,No
! <People Internal Gains Nominal>,Name,Schedule Name,Zone Name,Zone Floor Area {m2},# Zone Occupants,Number of People {},People/Floor Area {person/m2},Floor Area per person {m2/person},Fraction Radiant,Fraction Convected,Sensible Fraction Calculation,Activity level,ASHRAE 55 Warnings,Carbon Dioxide Generation Rate,Nominal Minimum Number of People,Nominal Maximum Number of People
 People Internal Gains Nominal, CORE_ZN ZN SPACE FUNCTION OFFICE ENCLOSED > 25 M2 PEOPLE,NECB-A-OCCUPANCY,CORE_ZN ZN,149.66,7.5,7.5,5.002E-002,19.993,0.300,0.700,AutoCalculate,NECB-ACTIVITY,No,3.8200E-008,0,7
 People Internal Gains Nominal, PERIMETER_ZN_1 ZN SPACE FUNCTION OFFICE ENCLOSED > 25 M2 PEOPLE,NECB-A-OCCUPANCY,PERIMETER_ZN_1 ZN,113.45,5.7,5.7,5.002E-002,19.993,0.300,0.700,AutoCalculate,NECB-ACTIVITY,No,3.8200E-008,0,5
 People Internal Gains Nominal, PERIMETER_ZN_2 ZN SPACE FUNCTION OFFICE ENCLOSED > 25 M2 PEOPLE,NECB-A-OCCUPANCY,PERIMETER_ZN_2 ZN,67.30,3.4,3.4,5.002E-002,19.993,0.300,0.700,AutoCalculate,NECB-ACTIVITY,No,3.8200E-008,0,3
 People Internal Gains Nominal, PERIMETER_ZN_3 ZN SPACE FUNCTION OFFICE ENCLOSED > 25 M2 PEOPLE,NECB-A-OCCUPANCY,PERIMETER_ZN_3 ZN,113.45,5.7,5.7,5.002E-002,19.993,0.300,0.700,AutoCalculate,NECB-ACTIVITY,No,3.8200E-008,0,5
 People Internal Gains Nominal, PERIMETER_ZN_4 ZN SPACE FUNCTION OFFICE ENCLOSED > 25 M2 PEOPLE,NECB-A-OCCUPANCY,PERIMETER_ZN_4 ZN,67.30,3.4,3.4,5.002E-002,19.993,0.300,0.700,AutoCalculate,NECB-ACTIVITY,No,3.8200E-008,0,3
! <Lights Internal Gains Nominal>,Name,Schedule Name,Zone Name,Zone Floor Area {m2},# Zone Occupants,Lighting Level {W},Lights/Floor Area {W/m2},Lights per person {W/person},Fraction Return Air,Fraction Radiant,Fraction Short Wave,Fraction Convected,Fraction Replaceable,End-Use Category,Nominal Minimum Lighting Level {W},Nominal Maximum Lighting Level {W}
 Lights Internal Gains Nominal, CORE_ZN ZN SPACE FUNCTION OFFICE ENCLOSED > 25 M2 LIGHTS,NECB-A-OCCUPANCY-NECB-A-LIGHTING-0.3-0.1-0.67-LIGHT RULESET,CORE_ZN ZN,149.66,7.5,1796.541,12.004,240.000,0.000,0.500,0.200,0.300,1.000,General,62.789,1616.887
 Lights Internal Gains Nominal, PERIMETER_ZN_1 ZN SPACE FUNCTION OFFICE ENCLOSED > 25 M2 LIGHTS,NECB-A-OCCUPANCY-NECB-A-LIGHTING-0.3-0.1-0.67-LIGHT RULESET,PERIMETER_ZN_1 ZN,113.45,5.7,1361.895,12.004,240.000,0.000,0.500,0.200,0.300,1.000,General,47.598,1225.705
 Lights Internal Gains Nominal, PERIMETER_ZN_2 ZN SPACE FUNCTION OFFICE ENCLOSED > 25 M2 LIGHTS,NECB-A-OCCUPANCY-NECB-A-LIGHTING-0.3-0.1-0.67-LIGHT RULESET,PERIMETER_ZN_2 ZN,67.30,3.4,807.893,12.004,240.000,0.000,0.500,0.200,0.300,1.000,General,28.236,727.104
 Lights Internal Gains Nominal, PERIMETER_ZN_3 ZN SPACE FUNCTION OFFICE ENCLOSED > 25 M2 LIGHTS,NECB-A-OCCUPANCY-NECB-A-LIGHTING-0.3-0.1-0.67-LIGHT RULESET,PERIMETER_ZN_3 ZN,113.45,5.7,1361.895,12.004,240.000,0.000,0.500,0.200,0.300,1.000,General,47.598,1225.705
 Lights Internal Gains Nominal, PERIMETER_ZN_4 ZN SPACE FUNCTION OFFICE ENCLOSED > 25 M2 LIGHTS,NECB-A-OCCUPANCY-NECB-A-LIGHTING-0.3-0.1-0.67-LIGHT RULESET,PERIMETER_ZN_4 ZN,67.30,3.4,807.893,12.004,240.000,0.000,0.500,0.200,0.300,1.000,General,28.236,727.104
! <ElectricEquipment Internal Gains Nominal>,Name,Schedule Name,Zone Name,Zone Floor Area {m2},# Zone Occupants,Equipment Level {W},Equipment/Floor Area {W/m2},Equipment per person {W/person},Fraction Latent,Fraction Radiant,Fraction Lost,Fraction Convected,End-Use SubCategory,Nominal Minimum Equipment Level {W},Nominal Maximum Equipment Level {W}
 ElectricEquipment Internal Gains Nominal, CORE_ZN ZN SPACE FUNCTION OFFICE ENCLOSED > 25 M2 ELEC EQUIP,NECB-A-ELECTRIC-EQUIPMENT,CORE_ZN ZN,149.66,7.5,1122.838,7.503,150.000,0.000,0.500,0.000,0.500,General,224.568,1010.555
 ElectricEquipment Internal Gains Nominal, PERIMETER_ZN_1 ZN SPACE FUNCTION OFFICE ENCLOSED > 25 M2 ELEC EQUIP,NECB-A-ELECTRIC-EQUIPMENT,PERIMETER_ZN_1 ZN,113.45,5.7,851.184,7.503,150.000,0.000,0.500,0.000,0.500,General,170.237,766.066
 ElectricEquipment Internal Gains Nominal, PERIMETER_ZN_2 ZN SPACE FUNCTION OFFICE ENCLOSED > 25 M2 ELEC EQUIP,NECB-A-ELECTRIC-EQUIPMENT,PERIMETER_ZN_2 ZN,67.30,3.4,504.933,7.503,150.000,0.000,0.500,0.000,0.500,General,100.987,454.440
 ElectricEquipment Internal Gains Nominal, PERIMETER_ZN_3 ZN SPACE FUNCTION OFFICE ENCLOSED > 25 M2 ELEC EQUIP,NECB-A-ELECTRIC-EQUIPMENT,PERIMETER_ZN_3 ZN,113.45,5.7,851.184,7.503,150.000,0.000,0.500,0.000,0.500,General,170.237,766.066
 ElectricEquipment Internal Gains Nominal, PERIMETER_ZN_4 ZN SPACE FUNCTION OFFICE ENCLOSED > 25 M2 ELEC EQUIP,NECB-A-ELECTRIC-EQUIPMENT,PERIMETER_ZN_4 ZN,67.30,3.4,504.933,7.503,150.000,0.000,0.500,0.000,0.500,General,100.987,454.440
! <Shadowing/Sun Position Calculations Annual Simulations>, Calculation Method, Value {days}, Allowable Number Figures in Shadow Overlap {}, Polygon Clipping Algorithm, Sky Diffuse Modeling Algorithm, External Shading Calculation Method, Output External Shading Calculation Results, Disable Self-Shading Within Shading Zone Groups, Disable Self-Shading From Shading Zone Groups to Other Zones
Shadowing/Sun Position Calculations Annual Simulations,AverageOverDaysInFrequency,30,15000,SutherlandHodgman,SimpleSkyDiffuseModeling,InternalCalculation,No,No,No
! <ZoneInfiltration Airflow Stats Nominal>,Name,Schedule Name,Zone Name, Zone Floor Area {m2}, # Zone Occupants,Design Volume Flow Rate {m3/s},Volume Flow Rate/Floor Area {m3/s/m2},Volume Flow Rate/Exterior Surface Area {m3/s/m2},ACH - Air Changes per Hour,Equation A - Constant Term Coefficient {},Equation B - Temperature Term Coefficient {1/C},Equation C - Velocity Term Coefficient {s/m}, Equation D - Velocity Squared Term Coefficient {s2/m2}
 ZoneInfiltration Airflow Stats Nominal, ATTIC INFILTRATION,ALWAYS ON DISCRETE,ATTIC ZN,567.98,0.0,0.150,2.635E-004,2.283E-004,0.748,0.000,0.000,0.224,0.000
 ZoneInfiltration Airflow Stats Nominal, PERIMETER_ZN_1 INFILTRATION,ALWAYS ON DISCRETE,PERIMETER_ZN_1 ZN,113.45,5.7,2.203E-002,1.942E-004,2.500E-004,0.229,0.000,0.000,0.224,0.000
 ZoneInfiltration Airflow Stats Nominal, PERIMETER_ZN_2 INFILTRATION,ALWAYS ON DISCRETE,PERIMETER_ZN_2 ZN,67.30,3.4,1.408E-002,2.091E-004,2.500E-004,0.247,0.000,0.000,0.224,0.000
 ZoneInfiltration Airflow Stats Nominal, PERIMETER_ZN_3 INFILTRATION,ALWAYS ON DISCRETE,PERIMETER_ZN_3 ZN,113.45,5.7,2.111E-002,1.861E-004,2.500E-004,0.220,0.000,0.000,0.224,0.000
 ZoneInfiltration Airflow Stats Nominal, PERIMETER_ZN_4 INFILTRATION,ALWAYS ON DISCRETE,PERIMETER_ZN_4 ZN,67.30,3.4,1.408E-002,2.091E-004,2.500E-004,0.247,0.000,0.000,0.224,0.000
! <AirFlow Model>, Simple
 AirFlow Model, Simple
! <RoomAir Model>, Zone Name, Mixing/Mundt/UCSDDV/UCSDCV/UCSDUFI/UCSDUFE/User Defined
RoomAir Model,ATTIC ZN,Mixing/Well-Stirred
RoomAir Model,CORE_ZN ZN,Mixing/Well-Stirred
RoomAir Model,PERIMETER_ZN_1 ZN,Mixing/Well-Stirred
RoomAir Model,PERIMETER_ZN_2 ZN,Mixing/Well-Stirred
RoomAir Model,PERIMETER_ZN_3 ZN,Mixing/Well-Stirred
RoomAir Model,PERIMETER_ZN_4 ZN,Mixing/Well-Stirred
! <AirflowNetwork Model:Control>, No Multizone or Distribution/Multizone with Distribution/Multizone without Distribution/Multizone with Distribution only during Fan Operation
AirflowNetwork Model:Control,NoMultizoneOrDistribution
! <Zone Volume Capacitance Multiplier>, Sensible Heat Capacity Multiplier, Moisture Capacity Multiplier, Carbon Dioxide Capacity Multiplier, Generic Contaminant Capacity Multiplier
Zone Volume Capacitance Multiplier,   1.000 ,   1.000,   1.000,   1.000
! <Load Timesteps in Zone Design Calculation Averaging Window>, Value
 Load Timesteps in Zone Design Calculation Averaging Window,    6
! <Heating Sizing Factor Information>, Sizing Factor ID, Value
 Heating Sizing Factor Information, Global,   1.2500    
 Heating Sizing Factor Information, Zone ATTIC ZN,   1.2500    
 Heating Sizing Factor Information, Zone CORE_ZN ZN,   1.2500    
 Heating Sizing Factor Information, Zone PERIMETER_ZN_1 ZN,   1.2500    
 Heating Sizing Factor Information, Zone PERIMETER_ZN_2 ZN,   1.2500    
 Heating Sizing Factor Information, Zone PERIMETER_ZN_3 ZN,   1.2500    
 Heating Sizing Factor Information, Zone PERIMETER_ZN_4 ZN,   1.2500    
! <Cooling Sizing Factor Information>, Sizing Factor ID, Value
 Cooling Sizing Factor Information, Global,   1.1500    
 Cooling Sizing Factor Information, Zone ATTIC ZN,   1.1500    
 Cooling Sizing Factor Information, Zone CORE_ZN ZN,   1.1500    
 Cooling Sizing Factor Information, Zone PERIMETER_ZN_1 ZN,   1.1500    
 Cooling Sizing Factor Information, Zone PERIMETER_ZN_2 ZN,   1.1500    
 Cooling Sizing Factor Information, Zone PERIMETER_ZN_3 ZN,   1.1500    
 Cooling Sizing Factor Information, Zone PERIMETER_ZN_4 ZN,   1.1500    
! <Zone Sizing Information>, Zone Name, Load Type, Calc Des Load {W}, User Des Load {W}, Calc Des Air Flow Rate {m3/s}, User Des Air Flow Rate {m3/s}, Design Day Name, Date/Time of Peak, Temperature at Peak {C}, Humidity Ratio at Peak {kgWater/kgDryAir}, Floor Area {m2}, # Occupants, Calc Outdoor Air Flow Rate {m3/s}, Calc DOAS Heat Addition Rate {W}
 Zone Sizing Information, CORE_ZN ZN, Cooling, 3186.74846, 3664.76073, 0.26571, 0.30557, YELLOWKNIFE AP ANN CLG .4% CONDNS DB=>MWB, 7/21 17:00:00, 24.29400, 7.78272E-003, 149.65740, 7.48559, 6.31015E-002, 0.00000
 Zone Sizing Information, CORE_ZN ZN, Heating, 3770.75003, 4713.43754, 0.17188, 0.21484, YELLOWKNIFE AP ANN HTG 99.6% CONDNS DB, 1/21 08:00:00, -40.50000, 7.63571E-005, 149.65740, 7.48559, 6.31015E-002, 0.00000
 Zone Sizing Information, PERIMETER_ZN_1 ZN, Cooling, 5321.40277, 6119.61318, 0.44367, 0.51022, YELLOWKNIFE AP ANN CLG .4% CONDNS DB=>MWB, 7/21 13:40:00, 25.26833, 7.78272E-003, 113.45000, 5.67456, 4.78351E-002, 0.00000
 Zone Sizing Information, PERIMETER_ZN_1 ZN, Heating, 5031.44117, 6289.30147, 0.23073, 0.28842, YELLOWKNIFE AP ANN HTG 99.6% CONDNS DB, 1/21 08:00:00, -40.50000, 7.63571E-005, 113.45000, 5.67456, 4.78351E-002, 0.00000
 Zone Sizing Information, PERIMETER_ZN_2 ZN, Cooling, 3542.43314, 4073.79811, 0.29535, 0.33965, YELLOWKNIFE AP ANN CLG .4% CONDNS DB=>MWB, 7/21 09:40:00, 21.95033, 7.78273E-003, 67.30000, 3.36622, 2.83764E-002, 0.00000
 Zone Sizing Information, PERIMETER_ZN_2 ZN, Heating, 3124.55228, 3905.69035, 0.14334, 0.17917, YELLOWKNIFE AP ANN HTG 99.6% CONDNS DB, 1/21 08:00:00, -40.50000, 7.63571E-005, 67.30000, 3.36622, 2.83764E-002, 0.00000
 Zone Sizing Information, PERIMETER_ZN_3 ZN, Cooling, 2838.44702, 3264.21407, 0.23666, 0.27216, YELLOWKNIFE AP ANN CLG .4% CONDNS DB=>MWB, 7/21 17:00:00, 24.29400, 7.78272E-003, 113.45000, 5.67456, 4.78351E-002, 0.00000
 Zone Sizing Information, PERIMETER_ZN_3 ZN, Heating, 4872.18315, 6090.22894, 0.22337, 0.27921, YELLOWKNIFE AP ANN HTG 99.6% CONDNS DB, 1/21 08:00:00, -40.50000, 7.63571E-005, 113.45000, 5.67456, 4.78351E-002, 0.00000
 Zone Sizing Information, PERIMETER_ZN_4 ZN, Cooling, 3749.74075, 4312.20187, 0.31264, 0.35954, YELLOWKNIFE AP ANN CLG .4% CONDNS DB=>MWB, 7/21 17:40:00, 23.76733, 7.78272E-003, 67.30000, 3.36622, 2.83764E-002, 0.00000
 Zone Sizing Information, PERIMETER_ZN_4 ZN, Heating, 3135.73104, 3919.66380, 0.14385, 0.17982, YELLOWKNIFE AP ANN HTG 99.6% CONDNS DB, 1/21 08:00:00, -40.50000, 7.63571E-005, 67.30000, 3.36622, 2.83764E-002, 0.00000
! <Component Sizing Information>, Component Type, Component Name, Input Field Description, Value
 Component Sizing Information, ZoneHVAC:IdealLoadsAirSystem, ZONE HVAC IDEAL LOADS AIR SYSTEM 1, User-Specified Maximum Heating Air Flow Rate [m3/s], 0.00000
 Component Sizing Information, ZoneHVAC:IdealLoadsAirSystem, ZONE HVAC IDEAL LOADS AIR SYSTEM 1, User-Specified Maximum Cooling Air Flow Rate [m3/s], 0.00000
 Component Sizing Information, ZoneHVAC:IdealLoadsAirSystem, ZONE HVAC IDEAL LOADS AIR SYSTEM 2, User-Specified Maximum Heating Air Flow Rate [m3/s], 0.00000
 Component Sizing Information, ZoneHVAC:IdealLoadsAirSystem, ZONE HVAC IDEAL LOADS AIR SYSTEM 2, User-Specified Maximum Cooling Air Flow Rate [m3/s], 0.00000
 Component Sizing Information, ZoneHVAC:IdealLoadsAirSystem, ZONE HVAC IDEAL LOADS AIR SYSTEM 3, User-Specified Maximum Heating Air Flow Rate [m3/s], 0.00000
 Component Sizing Information, ZoneHVAC:IdealLoadsAirSystem, ZONE HVAC IDEAL LOADS AIR SYSTEM 3, User-Specified Maximum Cooling Air Flow Rate [m3/s], 0.00000
 Component Sizing Information, ZoneHVAC:IdealLoadsAirSystem, ZONE HVAC IDEAL LOADS AIR SYSTEM 4, User-Specified Maximum Heating Air Flow Rate [m3/s], 0.00000
 Component Sizing Information, ZoneHVAC:IdealLoadsAirSystem, ZONE HVAC IDEAL LOADS AIR SYSTEM 4, User-Specified Maximum Cooling Air Flow Rate [m3/s], 0.00000
 Component Sizing Information, ZoneHVAC:IdealLoadsAirSystem, ZONE HVAC IDEAL LOADS AIR SYSTEM 5, User-Specified Maximum Heating Air Flow Rate [m3/s], 0.00000
 Component Sizing Information, ZoneHVAC:IdealLoadsAirSystem, ZONE HVAC IDEAL LOADS AIR SYSTEM 5, User-Specified Maximum Cooling Air Flow Rate [m3/s], 0.00000
 Component Sizing Information, ZoneHVAC:IdealLoadsAirSystem, ZONE HVAC IDEAL LOADS AIR SYSTEM 6, User-Specified Maximum Heating Air Flow Rate [m3/s], 0.00000
 Component Sizing Information, ZoneHVAC:IdealLoadsAirSystem, ZONE HVAC IDEAL LOADS AIR SYSTEM 6, User-Specified Maximum Cooling Air Flow Rate [m3/s], 0.00000
! <Environment>,Environment Name,Environment Type, Start Date, End Date, Start DayOfWeek, Duration {#days}, Source:Start DayOfWeek,  Use Daylight Saving, Use Holidays, Apply Weekend Holiday Rule,  Use Rain Values, Use Snow Values
! <Environment:Special Days>, Special Day Name, Special Day Type, Source, Start Date, Duration {#days}
! <Environment:Daylight Saving>, Daylight Saving Indicator, Source, Start Date, End Date
! <Environment:WarmupDays>, NumberofWarmupDays
Environment,YELLOWKNIFE AP ANN CLG .4% CONDNS DB=>MWB,SizingPeriod:DesignDay,07/21,07/21,SummerDesignDay,1,N/A,N/A,N/A,N/A,N/A,N/A
Environment:Daylight Saving,No,SizingPeriod:DesignDay
! <Environment:Design Day Data>, Max Dry-Bulb Temp {C}, Temp Range {dC}, Temp Range Ind Type, Hum Ind Value at Max Temp, Hum Ind Type,Pressure {Pa}, Wind Direction {deg CW from N}, Wind Speed {m/s}, Clearness, Rain, Snow
! <Environment:Design Day Misc>,DayOfYear,ASHRAE A Coeff,ASHRAE B Coeff,ASHRAE C Coeff,Solar Constant-Annual Variation,Eq of Time {minutes}, Solar Declination Angle {deg}, Solar Model
Environment:Design Day Data,25.40,7.90,DefaultMultipliers,98878,150,4.0,0.00,No,No
Environment:Design Day Misc,202,1084.4,0.2082,0.1365,1.0,-6.23,20.6,ASHRAETau
Environment:WarmupDays,  6
! <Tabular Report>,Style,Unit Conversion
Tabular Report,HTML,None
! <Warmup Convergence Information>,Zone Name,Environment Type/Name,Average Warmup Temperature Difference {deltaC},Std Dev Warmup Temperature Difference {deltaC},Max Temperature Pass/Fail Convergence,Min Temperature Pass/Fail Convergence,Average Warmup Load Difference {W},Std Dev Warmup Load Difference {W},Heating Load Pass/Fail Convergence,Cooling Load Pass/Fail Convergence
 Warmup Convergence Information,ATTIC ZN,SizingPeriod: YELLOWKNIFE AP ANN CLG .4% CONDNS DB=>MWB,4.4470785540E-002,2.4315850475E-002,Pass,Pass,0.0000000000,0.0000000000,Pass,Pass
 Warmup Convergence Information,CORE_ZN ZN,SizingPeriod: YELLOWKNIFE AP ANN CLG .4% CONDNS DB=>MWB,2.7168665633E-002,0.1049775503,Pass,Pass,5.4911717973E-002,0.3091934661,Pass,Pass
 Warmup Convergence Information,PERIMETER_ZN_1 ZN,SizingPeriod: YELLOWKNIFE AP ANN CLG .4% CONDNS DB=>MWB,2.8894829753E-002,0.1133747503,Pass,Pass,7.6261825814E-002,0.3979925405,Pass,Pass
 Warmup Convergence Information,PERIMETER_ZN_2 ZN,SizingPeriod: YELLOWKNIFE AP ANN CLG .4% CONDNS DB=>MWB,6.0819512544E-002,0.2994223380,Pass,Pass,8.2494920918E-002,0.4610116994,Pass,Pass
 Warmup Convergence Information,PERIMETER_ZN_3 ZN,SizingPeriod: YELLOWKNIFE AP ANN CLG .4% CONDNS DB=>MWB,3.8255625435E-002,0.1591747784,Pass,Pass,7.7605005103E-002,0.4557861955,Pass,Pass
 Warmup Convergence Information,PERIMETER_ZN_4 ZN,SizingPeriod: YELLOWKNIFE AP ANN CLG .4% CONDNS DB=>MWB,3.9715320016E-002,0.1757143027,Pass,Pass,9.6294562873E-002,0.6413505703,Pass,Pass
Environment,YELLOWKNIFE AP ANN HTG 99.6% CONDNS DB,SizingPeriod:DesignDay,01/21,01/21,WinterDesignDay,1,N/A,N/A,N/A,N/A,N/A,N/A
Environment:Daylight Saving,No,SizingPeriod:DesignDay
Environment:Design Day Data,-40.50,0.00,DefaultMultipliers,98878,310,1.7,0.00,No,No
Environment:Design Day Misc, 21,1229.0,0.1415,5.7310E-002,1.0,-11.15,-20.1,ASHRAEClearSky
Environment:WarmupDays,  6
 Warmup Convergence Information,ATTIC ZN,SizingPeriod: YELLOWKNIFE AP ANN HTG 99.6% CONDNS DB,2.4103739011E-002,1.0697689977E-002,Pass,Pass,0.0000000000,0.0000000000,Pass,Pass
 Warmup Convergence Information,CORE_ZN ZN,SizingPeriod: YELLOWKNIFE AP ANN HTG 99.6% CONDNS DB,5.6610063416E-002,0.3362521773,Pass,Pass,0.1971893893,0.6770117713,Pass,Pass
 Warmup Convergence Information,PERIMETER_ZN_1 ZN,SizingPeriod: YELLOWKNIFE AP ANN HTG 99.6% CONDNS DB,5.5766907794E-002,0.3492269901,Pass,Pass,7.3867741293E-002,0.4181825526,Pass,Pass
 Warmup Convergence Information,PERIMETER_ZN_2 ZN,SizingPeriod: YELLOWKNIFE AP ANN HTG 99.6% CONDNS DB,5.5726546978E-002,0.3491420360,Pass,Pass,8.1527578057E-002,0.5006198002,Pass,Pass
 Warmup Convergence Information,PERIMETER_ZN_3 ZN,SizingPeriod: YELLOWKNIFE AP ANN HTG 99.6% CONDNS DB,5.5805382239E-002,0.3483851918,Pass,Pass,8.5844917919E-002,0.5240039279,Pass,Pass
 Warmup Convergence Information,PERIMETER_ZN_4 ZN,SizingPeriod: YELLOWKNIFE AP ANN HTG 99.6% CONDNS DB,5.5722225404E-002,0.3492369864,Pass,Pass,8.0177596348E-002,0.4889103135,Pass,Pass
! <Program Control Information:Threads/Parallel Sims>, Threading Supported,Maximum Number of Threads, Env Set Threads (OMP_NUM_THREADS), EP Env Set Threads (EP_OMP_NUM_THREADS), IDF Set Threads, Number of Threads Used (Interior Radiant Exchange), Number Nominal Surfaces, Number Parallel Sims
Program Control:Threads/Parallel Sims, No,1, N/A, N/A, N/A, N/A, N/A, N/A
End of Data
