Program Version,EnergyPlus, Version 8.9.0-eba93e8e1b, YMD=2019.08.13 17:35
! <Version>, Version ID
 Version, 8.9
! <Timesteps per Hour>, #TimeSteps, Minutes per TimeStep {minutes}
 Timesteps per Hour,  1, 60
! <System Convergence Limits>, Minimum System TimeStep {minutes}, Max HVAC Iterations, Minimum Plant Iterations, Maximum Plant Iterations
 System Convergence Limits, 1, 20, 2, 8
! <Simulation Control>, Do Zone Sizing, Do System Sizing, Do Plant Sizing, Do Design Days, Do Weather Simulation, Do HVAC Sizing Simulation
 Simulation Control, Yes, Yes, Yes, No, Yes, No
! <Output Reporting Tolerances>, Tolerance for Time Heating Setpoint Not Met, Tolerance for Zone Cooling Setpoint Not Met Time
 Output Reporting Tolerances, 1.000, 1.000, 
! <Site:GroundTemperature:BuildingSurface>,Jan{C},Feb{C},Mar{C},Apr{C},May{C},Jun{C},Jul{C},Aug{C},Sep{C},Oct{C},Nov{C},Dec{C}
 Site:GroundTemperature:BuildingSurface,  19.53,  19.50,  19.54,  19.60,  20.00,  21.64,  22.23,  22.38,  21.45,  20.12,  19.80,  19.63
! <Site:GroundTemperature:FCfactorMethod>,Jan{C},Feb{C},Mar{C},Apr{C},May{C},Jun{C},Jul{C},Aug{C},Sep{C},Oct{C},Nov{C},Dec{C}
 Site:GroundTemperature:FCfactorMethod,   4.91,   4.40,   5.30,   6.72,  10.43,  13.29,  15.22,  15.81,  14.81,  12.58,   9.61,   6.86
! <Site:GroundTemperature:Shallow>,Jan{C},Feb{C},Mar{C},Apr{C},May{C},Jun{C},Jul{C},Aug{C},Sep{C},Oct{C},Nov{C},Dec{C}
 Site:GroundTemperature:Shallow,  13.00,  13.00,  13.00,  13.00,  13.00,  13.00,  13.00,  13.00,  13.00,  13.00,  13.00,  13.00
! <Site:GroundTemperature:Deep>,Jan{C},Feb{C},Mar{C},Apr{C},May{C},Jun{C},Jul{C},Aug{C},Sep{C},Oct{C},Nov{C},Dec{C}
 Site:GroundTemperature:Deep,  16.00,  16.00,  16.00,  16.00,  16.00,  16.00,  16.00,  16.00,  16.00,  16.00,  16.00,  16.00
! <Site:GroundReflectance>,Jan{dimensionless},Feb{dimensionless},Mar{dimensionless},Apr{dimensionless},May{dimensionless},Jun{dimensionless},Jul{dimensionless},Aug{dimensionless},Sep{dimensionless},Oct{dimensionless},Nov{dimensionless},Dec{dimensionless}
 Site:GroundReflectance,  0.20,  0.20,  0.20,  0.20,  0.20,  0.20,  0.20,  0.20,  0.20,  0.20,  0.20,  0.20
! <Site:GroundReflectance:SnowModifier>, Normal, Daylighting {dimensionless}
 Site:GroundReflectance:SnowModifier,   1.000,   1.000
! <Site:GroundReflectance:Snow>,Jan{dimensionless},Feb{dimensionless},Mar{dimensionless},Apr{dimensionless},May{dimensionless},Jun{dimensionless},Jul{dimensionless},Aug{dimensionless},Sep{dimensionless},Oct{dimensionless},Nov{dimensionless},Dec{dimensionless}
 Site:GroundReflectance:Snow,  0.20,  0.20,  0.20,  0.20,  0.20,  0.20,  0.20,  0.20,  0.20,  0.20,  0.20,  0.20
! <Site:GroundReflectance:Snow:Daylighting>,Jan{dimensionless},Feb{dimensionless},Mar{dimensionless},Apr{dimensionless},May{dimensionless},Jun{dimensionless},Jul{dimensionless},Aug{dimensionless},Sep{dimensionless},Oct{dimensionless},Nov{dimensionless},Dec{dimensionless}
 Site:GroundReflectance:Snow:Daylighting,  0.20,  0.20,  0.20,  0.20,  0.20,  0.20,  0.20,  0.20,  0.20,  0.20,  0.20,  0.20
! <Environment:Weather Station>,Wind Sensor Height Above Ground {m},Wind Speed Profile Exponent {},Wind Speed Profile Boundary Layer Thickness {m},Air Temperature Sensor Height Above Ground {m},Wind Speed Modifier Coefficient-Internal,Temperature Modifier Coefficient-Internal
Environment:Weather Station,10.000,0.140,270.000,1.500,1.586,9.750E-003
! <Site:Location>, Location Name, Latitude {N+/S- Deg}, Longitude {E+/W- Deg},  Time Zone Number {GMT+/-}, Elevation {m},  Standard Pressure at Elevation {Pa}, Standard RhoAir at Elevation
Site:Location,Victoria Intl AP BC CAN CWEC2016 WMO#=717990,48.65,-123.43,-8.00,19.50,101091,1.2015
! <Building Information>, Building Name,North Axis {deg},Terrain,  Loads Convergence Tolerance Value,Temperature Convergence Tolerance Value,  Solar Distribution,Maximum Number of Warmup Days,Minimum Number of Warmup Days
 Building Information,RetailStripmall-CAN_BC_Victoria.Intl.AP.717990_CWEC2016.epw created: 2019-08-07 21:44:03 +0000,0.000,Suburbs,4.00000E-002,0.40000,FullExterior,25,6
! <Inside Convection Algorithm>, Algorithm {Simple | TARP | CeilingDiffuser | AdaptiveConvectionAlgorithm}
Inside Convection Algorithm,TARP
! <Outside Convection Algorithm>, Algorithm {SimpleCombined | TARP | MoWitt | DOE-2 | AdaptiveConvectionAlgorithm}
Outside Convection Algorithm,TARP
! <Sky Radiance Distribution>, Value {Anisotropic}
Sky Radiance Distribution,Anisotropic
! <Zone Air Solution Algorithm>, Value {ThirdOrderBackwardDifference | AnalyticalSolution | EulerMethod}
 Zone Air Solution Algorithm, ThirdOrderBackwardDifference
! <Zone Air Carbon Dioxide Balance Simulation>, Simulation {Yes/No}, Carbon Dioxide Concentration
 Zone Air Carbon Dioxide Balance Simulation, No,N/A
! <Zone Air Generic Contaminant Balance Simulation>, Simulation {Yes/No}, Generic Contaminant Concentration
 Zone Air Generic Contaminant Balance Simulation, No,N/A
! <Zone Air Mass Flow Balance Simulation>, Enforce Mass Balance, Adjust Zone Mixing, Adjust Zone Infiltration {AddInfiltration | AdjustInfiltration | None}, Infiltration Zones {MixingSourceZonesOnly | AllZones}
 Zone Air Mass Flow Balance Simulation, No,N/A,N/A,N/A
! <HVACSystemRootFindingAlgorithm>, Value {RegulaFalsi | Bisection | BisectionThenRegulaFalsi | RegulaFalsiThenBisection}
 HVACSystemRootFindingAlgorithm, RegulaFalsi
! <Environment:Site Atmospheric Variation>,Wind Speed Profile Exponent {},Wind Speed Profile Boundary Layer Thickness {m},Air Temperature Gradient Coefficient {K/m}
Environment:Site Atmospheric Variation,0.220,370.000,6.500000E-003
! <Surface Geometry>,Starting Corner,Vertex Input Direction,Coordinate System,Daylight Reference Point Coordinate System,Rectangular (Simple) Surface Coordinate System
 Surface Geometry,UpperLeftCorner,Counterclockwise,RelativeCoordinateSystem,RelativeCoordinateSystem,RelativeToZoneOrigin
! <Surface Heat Transfer Algorithm>, Value {CTF - ConductionTransferFunction | EMPD - MoisturePenetrationDepthConductionTransferFunction | CondFD - ConductionFiniteDifference | HAMT - CombinedHeatAndMoistureFiniteElement} - Description,Inside Surface Max Temperature Limit{C}, Surface Convection Coefficient Lower Limit {W/m2-K}, Surface Convection Coefficient Upper Limit {W/m2-K}
Surface Heat Transfer Algorithm, CTF - ConductionTransferFunction,200,0.10,1000.0
! <Shading Summary>, Number of Fixed Detached Shades, Number of Building Detached Shades, Number of Attached Shades
 Shading Summary,0,0,20
! <Zone Summary>, Number of Zones, Number of Zone Surfaces, Number of SubSurfaces
 Zone Summary,3,75,22
! <Zone Information>,Zone Name,North Axis {deg},Origin X-Coordinate {m},Origin Y-Coordinate {m},Origin Z-Coordinate {m},Centroid X-Coordinate {m},Centroid Y-Coordinate {m},Centroid Z-Coordinate {m},Type,Zone Multiplier,Zone List Multiplier,Minimum X {m},Maximum X {m},Minimum Y {m},Maximum Y {m},Minimum Z {m},Maximum Z {m},Ceiling Height {m},Volume {m3},Zone Inside Convection Algorithm {Simple-Detailed-CeilingDiffuser-TrombeWall},Zone Outside Convection Algorithm {Simple-Detailed-Tarp-MoWitt-DOE-2-BLAST}, Floor Area {m2},Exterior Gross Wall Area {m2},Exterior Net Wall Area {m2},Exterior Window Area {m2}, Number of Surfaces, Number of SubSurfaces, Number of Shading SubSurfaces,  Part of Total Building Area
 Zone Information, ALL_ST=SALES AREA_FL=BUILDING STORY 1_SCH=C,0.0,0.00,0.00,0.00,49.53,11.43,2.59,1,1,1,15.24,83.82,0.00,22.86,0.00,5.18,5.18,8120.89,TARP,TARP,1567.74,710.49,525.76,184.73,34,16,16,Yes
 Zone Information, ALL_ST=SALES AREA_FL=BUILDING STORY 1_SCH=C 1,0.0,0.00,0.00,0.00,87.63,11.43,2.59,1,1,1,83.82,91.44,0.00,22.86,0.00,5.18,5.18,902.32,TARP,TARP,174.19,197.36,146.04,51.31,6,3,2,Yes
 Zone Information, ALL_ST=SALES AREA_FL=BUILDING STORY 1_SCH=C 2,0.0,0.00,0.00,0.00,7.62,11.43,2.59,1,1,1,0.00,15.24,0.00,22.86,0.00,5.18,5.18,1804.64,TARP,TARP,348.39,276.30,204.46,71.84,6,3,2,Yes
! <Zone Internal Gains Nominal>,Zone Name, Floor Area {m2},# Occupants,Area per Occupant {m2/person},Occupant per Area {person/m2},Interior Lighting {W/m2},Electric Load {W/m2},Gas Load {W/m2},Other Load {W/m2},Hot Water Eq {W/m2},Steam Equipment {W/m2},Sum Loads per Area {W/m2},Outdoor Controlled Baseboard Heat
 Zone Internal Gains Nominal, ALL_ST=SALES AREA_FL=BUILDING STORY 1_SCH=C,1567.74,52.3,29.989,3.335E-002,6.780,1.250,0.000,0.000,0.000,0.000,8.030,No
 Zone Internal Gains Nominal, ALL_ST=SALES AREA_FL=BUILDING STORY 1_SCH=C 1,174.19,5.8,29.989,3.335E-002,6.780,1.250,0.000,0.000,0.000,0.000,8.030,No
 Zone Internal Gains Nominal, ALL_ST=SALES AREA_FL=BUILDING STORY 1_SCH=C 2,348.39,11.6,29.989,3.335E-002,6.780,1.250,0.000,0.000,0.000,0.000,8.030,No
! <People Internal Gains Nominal>,Name,Schedule Name,Zone Name,Zone Floor Area {m2},# Zone Occupants,Number of People {},People/Floor Area {person/m2},Floor Area per person {m2/person},Fraction Radiant,Fraction Convected,Sensible Fraction Calculation,Activity level,ASHRAE 55 Warnings,Carbon Dioxide Generation Rate,Nominal Minimum Number of People,Nominal Maximum Number of People
 People Internal Gains Nominal, ALL_ST=SALES AREA_FL=BUILDING STORY 1_SCH=C SPACE FUNCTION SALES AREA PEOPLE,NECB-C-OCCUPANCY,ALL_ST=SALES AREA_FL=BUILDING STORY 1_SCH=C,1567.74,52.3,52.3,3.335E-002,29.989,0.300,0.700,AutoCalculate,NECB-ACTIVITY,No,3.8200E-008,0,47
 People Internal Gains Nominal, ALL_ST=SALES AREA_FL=BUILDING STORY 1_SCH=C 1 SPACE FUNCTION SALES AREA PEOPLE,NECB-C-OCCUPANCY,ALL_ST=SALES AREA_FL=BUILDING STORY 1_SCH=C 1,174.19,5.8,5.8,3.335E-002,29.989,0.300,0.700,AutoCalculate,NECB-ACTIVITY,No,3.8200E-008,0,5
 People Internal Gains Nominal, ALL_ST=SALES AREA_FL=BUILDING STORY 1_SCH=C 2 SPACE FUNCTION SALES AREA PEOPLE,NECB-C-OCCUPANCY,ALL_ST=SALES AREA_FL=BUILDING STORY 1_SCH=C 2,348.39,11.6,11.6,3.335E-002,29.989,0.300,0.700,AutoCalculate,NECB-ACTIVITY,No,3.8200E-008,0,10
! <Lights Internal Gains Nominal>,Name,Schedule Name,Zone Name,Zone Floor Area {m2},# Zone Occupants,Lighting Level {W},Lights/Floor Area {W/m2},Lights per person {W/person},Fraction Return Air,Fraction Radiant,Fraction Short Wave,Fraction Convected,Fraction Replaceable,End-Use Category,Nominal Minimum Lighting Level {W},Nominal Maximum Lighting Level {W}
 Lights Internal Gains Nominal, ALL_ST=SALES AREA_FL=BUILDING STORY 1_SCH=C SPACE FUNCTION SALES AREA LIGHTS 85.0 PERCENT REDUCTION,NECB-C-OCCUPANCY-NECB-C-LIGHTING-0.0-0.0-0.67-LIGHT RULESET,ALL_ST=SALES AREA_FL=BUILDING STORY 1_SCH=C,1567.74,52.3,10629.269,6.780,203.326,0.000,0.500,0.200,0.300,1.000,General,531.463,9566.342
 Lights Internal Gains Nominal, ALL_ST=SALES AREA_FL=BUILDING STORY 1_SCH=C 1 SPACE FUNCTION SALES AREA LIGHTS 85.0 PERCENT REDUCTION,NECB-C-OCCUPANCY-NECB-C-LIGHTING-0.0-0.0-0.67-LIGHT RULESET,ALL_ST=SALES AREA_FL=BUILDING STORY 1_SCH=C 1,174.19,5.8,1181.030,6.780,203.326,0.000,0.500,0.200,0.300,1.000,General,59.051,1062.927
 Lights Internal Gains Nominal, ALL_ST=SALES AREA_FL=BUILDING STORY 1_SCH=C 2 SPACE FUNCTION SALES AREA LIGHTS 85.0 PERCENT REDUCTION,NECB-C-OCCUPANCY-NECB-C-LIGHTING-0.0-0.0-0.67-LIGHT RULESET,ALL_ST=SALES AREA_FL=BUILDING STORY 1_SCH=C 2,348.39,11.6,2362.060,6.780,203.326,0.000,0.500,0.200,0.300,1.000,General,118.103,2125.854
! <ElectricEquipment Internal Gains Nominal>,Name,Schedule Name,Zone Name,Zone Floor Area {m2},# Zone Occupants,Equipment Level {W},Equipment/Floor Area {W/m2},Equipment per person {W/person},Fraction Latent,Fraction Radiant,Fraction Lost,Fraction Convected,End-Use SubCategory,Nominal Minimum Equipment Level {W},Nominal Maximum Equipment Level {W}
 ElectricEquipment Internal Gains Nominal, ALL_ST=SALES AREA_FL=BUILDING STORY 1_SCH=C SPACE FUNCTION SALES AREA ELEC EQUIP 50.0 PERCENT REDUCTION,NECB-C-ELECTRIC-EQUIPMENT,ALL_ST=SALES AREA_FL=BUILDING STORY 1_SCH=C,1567.74,52.3,1960.386,1.250,37.500,0.000,0.500,0.000,0.500,General,98.019,1764.347
 ElectricEquipment Internal Gains Nominal, ALL_ST=SALES AREA_FL=BUILDING STORY 1_SCH=C 1 SPACE FUNCTION SALES AREA ELEC EQUIP 50.0 PERCENT REDUCTION,NECB-C-ELECTRIC-EQUIPMENT,ALL_ST=SALES AREA_FL=BUILDING STORY 1_SCH=C 1,174.19,5.8,217.821,1.250,37.500,0.000,0.500,0.000,0.500,General,10.891,196.039
 ElectricEquipment Internal Gains Nominal, ALL_ST=SALES AREA_FL=BUILDING STORY 1_SCH=C 2 SPACE FUNCTION SALES AREA ELEC EQUIP 50.0 PERCENT REDUCTION,NECB-C-ELECTRIC-EQUIPMENT,ALL_ST=SALES AREA_FL=BUILDING STORY 1_SCH=C 2,348.39,11.6,435.641,1.250,37.500,0.000,0.500,0.000,0.500,General,21.782,392.077
! <Shadowing/Sun Position Calculations Annual Simulations>, Calculation Method, Value {days}, Allowable Number Figures in Shadow Overlap {}, Polygon Clipping Algorithm, Sky Diffuse Modeling Algorithm, External Shading Calculation Method, Output External Shading Calculation Results, Disable Self-Shading Within Shading Zone Groups, Disable Self-Shading From Shading Zone Groups to Other Zones
Shadowing/Sun Position Calculations Annual Simulations,AverageOverDaysInFrequency,20,15000,SutherlandHodgman,SimpleSkyDiffuseModeling,InternalCalculation,No,No,No
! <Water Heater Information>,Type,Name,Volume {m3},Maximum Capacity {W},Standard Rated Recovery Efficiency, Standard Rated Energy Factor
! <Heat Pump Water Heater Information>,Type,Name,Volume {m3},Maximum Capacity {W},Standard Rated Recovery Efficiency,Standard Rated Energy Factor,"DX Coil Total Cooling Rate {W, HPWH Only}"
! <ZoneInfiltration Airflow Stats Nominal>,Name,Schedule Name,Zone Name, Zone Floor Area {m2}, # Zone Occupants,Design Volume Flow Rate {m3/s},Volume Flow Rate/Floor Area {m3/s/m2},Volume Flow Rate/Exterior Surface Area {m3/s/m2},ACH - Air Changes per Hour,Equation A - Constant Term Coefficient {},Equation B - Temperature Term Coefficient {1/C},Equation C - Velocity Term Coefficient {s/m}, Equation D - Velocity Squared Term Coefficient {s2/m2}
 ZoneInfiltration Airflow Stats Nominal, LGSTORE2 INFILTRATION,ALWAYS ON DISCRETE,ALL_ST=SALES AREA_FL=BUILDING STORY 1_SCH=C,1567.74,52.3,6.967E-002,4.444E-005,3.058E-005,3.088E-002,0.000,0.000,0.224,0.000
 ZoneInfiltration Airflow Stats Nominal, SMSTORE1 INFILTRATION,ALWAYS ON DISCRETE,ALL_ST=SALES AREA_FL=BUILDING STORY 1_SCH=C,1567.74,52.3,3.483E-002,2.222E-005,1.529E-005,1.544E-002,0.000,0.000,0.224,0.000
 ZoneInfiltration Airflow Stats Nominal, SMSTORE2 INFILTRATION,ALWAYS ON DISCRETE,ALL_ST=SALES AREA_FL=BUILDING STORY 1_SCH=C,1567.74,52.3,3.483E-002,2.222E-005,1.529E-005,1.544E-002,0.000,0.000,0.224,0.000
 ZoneInfiltration Airflow Stats Nominal, SMSTORE3 INFILTRATION,ALWAYS ON DISCRETE,ALL_ST=SALES AREA_FL=BUILDING STORY 1_SCH=C,1567.74,52.3,3.483E-002,2.222E-005,1.529E-005,1.544E-002,0.000,0.000,0.224,0.000
 ZoneInfiltration Airflow Stats Nominal, SMSTORE4 INFILTRATION,ALWAYS ON DISCRETE,ALL_ST=SALES AREA_FL=BUILDING STORY 1_SCH=C,1567.74,52.3,3.483E-002,2.222E-005,1.529E-005,1.544E-002,0.000,0.000,0.224,0.000
 ZoneInfiltration Airflow Stats Nominal, SMSTORE5 INFILTRATION,ALWAYS ON DISCRETE,ALL_ST=SALES AREA_FL=BUILDING STORY 1_SCH=C,1567.74,52.3,3.483E-002,2.222E-005,1.529E-005,1.544E-002,0.000,0.000,0.224,0.000
 ZoneInfiltration Airflow Stats Nominal, SMSTORE6 INFILTRATION,ALWAYS ON DISCRETE,ALL_ST=SALES AREA_FL=BUILDING STORY 1_SCH=C,1567.74,52.3,3.483E-002,2.222E-005,1.529E-005,1.544E-002,0.000,0.000,0.224,0.000
 ZoneInfiltration Airflow Stats Nominal, SMSTORE7 INFILTRATION,ALWAYS ON DISCRETE,ALL_ST=SALES AREA_FL=BUILDING STORY 1_SCH=C,1567.74,52.3,3.483E-002,2.222E-005,1.529E-005,1.544E-002,0.000,0.000,0.224,0.000
 ZoneInfiltration Airflow Stats Nominal, SMSTORE8 INFILTRATION,ALWAYS ON DISCRETE,ALL_ST=SALES AREA_FL=BUILDING STORY 1_SCH=C 1,174.19,5.8,5.113E-002,2.935E-004,1.376E-004,0.204,0.000,0.000,0.224,0.000
 ZoneInfiltration Airflow Stats Nominal, LGSTORE1 INFILTRATION,ALWAYS ON DISCRETE,ALL_ST=SALES AREA_FL=BUILDING STORY 1_SCH=C 2,348.39,11.6,8.596E-002,2.467E-004,1.376E-004,0.171,0.000,0.000,0.224,0.000
! <AirFlow Model>, Simple
 AirFlow Model, Simple
! <RoomAir Model>, Zone Name, Mixing/Mundt/UCSDDV/UCSDCV/UCSDUFI/UCSDUFE/User Defined
RoomAir Model,ALL_ST=SALES AREA_FL=BUILDING STORY 1_SCH=C,Mixing/Well-Stirred
RoomAir Model,ALL_ST=SALES AREA_FL=BUILDING STORY 1_SCH=C 1,Mixing/Well-Stirred
RoomAir Model,ALL_ST=SALES AREA_FL=BUILDING STORY 1_SCH=C 2,Mixing/Well-Stirred
! <AirflowNetwork Model:Control>, No Multizone or Distribution/Multizone with Distribution/Multizone without Distribution/Multizone with Distribution only during Fan Operation
AirflowNetwork Model:Control,NoMultizoneOrDistribution
! <Zone Volume Capacitance Multiplier>, Sensible Heat Capacity Multiplier, Moisture Capacity Multiplier, Carbon Dioxide Capacity Multiplier, Generic Contaminant Capacity Multiplier
Zone Volume Capacitance Multiplier,   1.000 ,   1.000,   1.000,   1.000
! <Load Timesteps in Zone Design Calculation Averaging Window>, Value
 Load Timesteps in Zone Design Calculation Averaging Window,    1
! <Heating Sizing Factor Information>, Sizing Factor ID, Value
 Heating Sizing Factor Information, Global,   1.3000    
 Heating Sizing Factor Information, Zone ALL_ST=SALES AREA_FL=BUILDING STORY 1_SCH=C,   1.3000    
 Heating Sizing Factor Information, Zone ALL_ST=SALES AREA_FL=BUILDING STORY 1_SCH=C 1,   1.3000    
 Heating Sizing Factor Information, Zone ALL_ST=SALES AREA_FL=BUILDING STORY 1_SCH=C 2,   1.3000    
! <Cooling Sizing Factor Information>, Sizing Factor ID, Value
 Cooling Sizing Factor Information, Global,   1.1000    
 Cooling Sizing Factor Information, Zone ALL_ST=SALES AREA_FL=BUILDING STORY 1_SCH=C,   1.1000    
 Cooling Sizing Factor Information, Zone ALL_ST=SALES AREA_FL=BUILDING STORY 1_SCH=C 1,   1.1000    
 Cooling Sizing Factor Information, Zone ALL_ST=SALES AREA_FL=BUILDING STORY 1_SCH=C 2,   1.1000    
! <Zone Sizing Information>, Zone Name, Load Type, Calc Des Load {W}, User Des Load {W}, Calc Des Air Flow Rate {m3/s}, User Des Air Flow Rate {m3/s}, Design Day Name, Date/Time of Peak, Temperature at Peak {C}, Humidity Ratio at Peak {kgWater/kgDryAir}, Floor Area {m2}, # Occupants, Calc Outdoor Air Flow Rate {m3/s}, Calc DOAS Heat Addition Rate {W}
 Zone Sizing Information, ALL_ST=SALES AREA_FL=BUILDING STORY 1_SCH=C, Cooling, 31986.31569, 35184.94725, 2.37145, 2.60860, VICTORIA INTL AP ANN CLG .4% CONDNS DB=>MWB, 7/21 13:00:00, 26.19500, 8.99832E-003, 1567.73880, 52.27695, 1.83175, 0.00000
 Zone Sizing Information, ALL_ST=SALES AREA_FL=BUILDING STORY 1_SCH=C, Heating, 42017.53839, 54622.79991, 1.57848, 2.05203, VICTORIA INTL AP ANN HTG 99.6% CONDNS DB, 12/21 09:00:00, -4.00000, 2.70334E-003, 1567.73880, 52.27695, 1.83175, 0.00000
 Zone Sizing Information, ALL_ST=SALES AREA_FL=BUILDING STORY 1_SCH=C 1, Cooling, 14424.46718, 15866.91390, 1.06225, 1.16847, VICTORIA INTL AP ANN CLG .4% CONDNS DB=>MWB, 7/21 09:00:00, 21.14500, 8.99832E-003, 174.19320, 5.80855, 0.20353, 0.00000
 Zone Sizing Information, ALL_ST=SALES AREA_FL=BUILDING STORY 1_SCH=C 1, Heating, 6796.24344, 8835.11647, 0.25665, 0.33364, VICTORIA INTL AP ANN HTG 99.6% CONDNS DB, 12/21 09:00:00, -4.00000, 2.70334E-003, 174.19320, 5.80855, 0.20353, 0.00000
 Zone Sizing Information, ALL_ST=SALES AREA_FL=BUILDING STORY 1_SCH=C 2, Cooling, 15938.69285, 17532.56213, 1.18173, 1.29991, VICTORIA INTL AP ANN CLG .4% CONDNS DB=>MWB, 7/21 17:00:00, 25.28600, 8.99833E-003, 348.38640, 11.61710, 0.40705, 0.00000
 Zone Sizing Information, ALL_ST=SALES AREA_FL=BUILDING STORY 1_SCH=C 2, Heating, 10705.15411, 13916.70034, 0.40297, 0.52386, VICTORIA INTL AP ANN HTG 99.6% CONDNS DB, 12/21 09:00:00, -4.00000, 2.70334E-003, 348.38640, 11.61710, 0.40705, 0.00000
! <System Sizing Information>, System Name, Load Type, Peak Load Kind, User Design Capacity, Calc Des Air Flow Rate [m3/s], User Des Air Flow Rate [m3/s], Design Day Name, Date/Time of Peak
 System Sizing Information, SYS_3_PSZ ALL_ST=SALES AREA_FL=BUILDING STORY 1_SCH=C, Cooling, Sensible, 39498.05, 2.60860, 2.60860, VICTORIA INTL AP ANN CLG .4% CONDNS DB=>MWB, 7/21 05:00:00
 System Sizing Information, SYS_3_PSZ ALL_ST=SALES AREA_FL=BUILDING STORY 1_SCH=C, Heating, Sensible, 109628.17, 2.05203, 2.05203, VICTORIA INTL AP ANN HTG 99.6% CONDNS DB, 12/21 09:00:00
 System Sizing Information, SYS_3_PSZ ALL_ST=SALES AREA_FL=BUILDING STORY 1_SCH=C 1, Cooling, Sensible, 14898.64, 1.16847, 1.16847, VICTORIA INTL AP ANN CLG .4% CONDNS DB=>MWB, 7/21 05:00:00
 System Sizing Information, SYS_3_PSZ ALL_ST=SALES AREA_FL=BUILDING STORY 1_SCH=C 1, Heating, Sensible, 14907.76, 0.33364, 0.33364, VICTORIA INTL AP ANN HTG 99.6% CONDNS DB, 12/21 09:00:00
 System Sizing Information, SYS_3_PSZ ALL_ST=SALES AREA_FL=BUILDING STORY 1_SCH=C 2, Cooling, Sensible, 17894.30, 1.29991, 1.29991, VICTORIA INTL AP ANN CLG .4% CONDNS DB=>MWB, 7/21 05:00:00
 System Sizing Information, SYS_3_PSZ ALL_ST=SALES AREA_FL=BUILDING STORY 1_SCH=C 2, Heating, Sensible, 26113.13, 0.52386, 0.52386, VICTORIA INTL AP ANN HTG 99.6% CONDNS DB, 12/21 09:00:00
! <Component Sizing Information>, Component Type, Component Name, Input Field Description, Value
 Component Sizing Information, ZoneHVAC:EnergyRecoveryVentilator, ALL_ST=SALES AREA_FL=BUILDING STORY 1_SCH=C ERV DOAS, Design Size Supply Air Flow Rate [m3/s], 1.83175
 Component Sizing Information, Fan:OnOff, ALL_ST=SALES AREA_FL=BUILDING STORY 1_SCH=C ERV SUP FAN, Design Size Maximum Flow Rate [m3/s], 1.83175
 Component Sizing Information, Fan:OnOff, ALL_ST=SALES AREA_FL=BUILDING STORY 1_SCH=C ERV EXH FAN, Design Size Maximum Flow Rate [m3/s], 1.83175
 Component Sizing Information, HeatExchanger:AirToAir:SensibleAndLatent, ALL_ST=SALES AREA_FL=BUILDING STORY 1_SCH=C ERV HX, Design Size Nominal Supply Air Flow Rate [m3/s], 1.83175
 Component Sizing Information, ZoneHVAC:EnergyRecoveryVentilator, ALL_ST=SALES AREA_FL=BUILDING STORY 1_SCH=C ERV DOAS, Design Size Exhaust Air Flow Rate [m3/s], 1.83175
 Component Sizing Information, ZONEHVAC:BASEBOARD:CONVECTIVE:ELECTRIC, ZONE HVAC BASEBOARD CONVECTIVE ELECTRIC 1, Design Size Heating Design Capacity [W], 54622.79991
 Component Sizing Information, AirTerminal:SingleDuct:VAV:HeatAndCool:NoReheat, ALL_ST=SALES AREA_FL=BUILDING STORY 1_SCH=C VAV TERMINAL, Design Size Maximum Air Flow Rate [m3/s], 2.60860
 Component Sizing Information, AirTerminal:SingleDuct:VAV:HeatAndCool:NoReheat, ALL_ST=SALES AREA_FL=BUILDING STORY 1_SCH=C VAV TERMINAL, Design Size Constant Minimum Air Flow Fraction, 0.45795
 Component Sizing Information, AirTerminal:SingleDuct:VAV:HeatAndCool:NoReheat, ALL_ST=SALES AREA_FL=BUILDING STORY 1_SCH=C VAV TERMINAL, User-Specified Constant Minimum Air Flow Fraction, 5.00000E-002
 Component Sizing Information, AirTerminal:SingleDuct:VAV:HeatAndCool:NoReheat, ALL_ST=SALES AREA_FL=BUILDING STORY 1_SCH=C VAV TERMINAL, Design Size Minimum Air Flow Rate [m3/s], 0.13043
 Component Sizing Information, ZoneHVAC:EnergyRecoveryVentilator, ALL_ST=SALES AREA_FL=BUILDING STORY 1_SCH=C 1 ERV DOAS, Design Size Supply Air Flow Rate [m3/s], 0.20353
 Component Sizing Information, Fan:OnOff, ALL_ST=SALES AREA_FL=BUILDING STORY 1_SCH=C 1 ERV SUP FAN, Design Size Maximum Flow Rate [m3/s], 0.20353
 Component Sizing Information, Fan:OnOff, ALL_ST=SALES AREA_FL=BUILDING STORY 1_SCH=C 1 ERV EXH FAN, Design Size Maximum Flow Rate [m3/s], 0.20353
 Component Sizing Information, HeatExchanger:AirToAir:SensibleAndLatent, ALL_ST=SALES AREA_FL=BUILDING STORY 1_SCH=C 1 ERV HX, Design Size Nominal Supply Air Flow Rate [m3/s], 0.20353
 Component Sizing Information, ZoneHVAC:EnergyRecoveryVentilator, ALL_ST=SALES AREA_FL=BUILDING STORY 1_SCH=C 1 ERV DOAS, Design Size Exhaust Air Flow Rate [m3/s], 0.20353
 Component Sizing Information, ZONEHVAC:BASEBOARD:CONVECTIVE:ELECTRIC, ZONE HVAC BASEBOARD CONVECTIVE ELECTRIC 2, Design Size Heating Design Capacity [W], 8835.11647
 Component Sizing Information, AirTerminal:SingleDuct:VAV:HeatAndCool:NoReheat, ALL_ST=SALES AREA_FL=BUILDING STORY 1_SCH=C 1 VAV TERMINAL, Design Size Maximum Air Flow Rate [m3/s], 1.16847
 Component Sizing Information, AirTerminal:SingleDuct:VAV:HeatAndCool:NoReheat, ALL_ST=SALES AREA_FL=BUILDING STORY 1_SCH=C 1 VAV TERMINAL, Design Size Constant Minimum Air Flow Fraction, 0.11360
 Component Sizing Information, AirTerminal:SingleDuct:VAV:HeatAndCool:NoReheat, ALL_ST=SALES AREA_FL=BUILDING STORY 1_SCH=C 1 VAV TERMINAL, User-Specified Constant Minimum Air Flow Fraction, 5.00000E-002
 Component Sizing Information, AirTerminal:SingleDuct:VAV:HeatAndCool:NoReheat, ALL_ST=SALES AREA_FL=BUILDING STORY 1_SCH=C 1 VAV TERMINAL, Design Size Minimum Air Flow Rate [m3/s], 5.84237E-002
 Component Sizing Information, ZoneHVAC:EnergyRecoveryVentilator, ALL_ST=SALES AREA_FL=BUILDING STORY 1_SCH=C 2 ERV DOAS, Design Size Supply Air Flow Rate [m3/s], 0.40705
 Component Sizing Information, Fan:OnOff, ALL_ST=SALES AREA_FL=BUILDING STORY 1_SCH=C 2 ERV SUP FAN, Design Size Maximum Flow Rate [m3/s], 0.40705
 Component Sizing Information, Fan:OnOff, ALL_ST=SALES AREA_FL=BUILDING STORY 1_SCH=C 2 ERV EXH FAN, Design Size Maximum Flow Rate [m3/s], 0.40705
 Component Sizing Information, HeatExchanger:AirToAir:SensibleAndLatent, ALL_ST=SALES AREA_FL=BUILDING STORY 1_SCH=C 2 ERV HX, Design Size Nominal Supply Air Flow Rate [m3/s], 0.40705
 Component Sizing Information, ZoneHVAC:EnergyRecoveryVentilator, ALL_ST=SALES AREA_FL=BUILDING STORY 1_SCH=C 2 ERV DOAS, Design Size Exhaust Air Flow Rate [m3/s], 0.40705
 Component Sizing Information, ZONEHVAC:BASEBOARD:CONVECTIVE:ELECTRIC, ZONE HVAC BASEBOARD CONVECTIVE ELECTRIC 3, Design Size Heating Design Capacity [W], 13916.70034
 Component Sizing Information, AirTerminal:SingleDuct:VAV:HeatAndCool:NoReheat, ALL_ST=SALES AREA_FL=BUILDING STORY 1_SCH=C 2 VAV TERMINAL, Design Size Maximum Air Flow Rate [m3/s], 1.29991
 Component Sizing Information, AirTerminal:SingleDuct:VAV:HeatAndCool:NoReheat, ALL_ST=SALES AREA_FL=BUILDING STORY 1_SCH=C 2 VAV TERMINAL, Design Size Constant Minimum Air Flow Fraction, 0.20422
 Component Sizing Information, AirTerminal:SingleDuct:VAV:HeatAndCool:NoReheat, ALL_ST=SALES AREA_FL=BUILDING STORY 1_SCH=C 2 VAV TERMINAL, User-Specified Constant Minimum Air Flow Fraction, 5.00000E-002
 Component Sizing Information, AirTerminal:SingleDuct:VAV:HeatAndCool:NoReheat, ALL_ST=SALES AREA_FL=BUILDING STORY 1_SCH=C 2 VAV TERMINAL, Design Size Minimum Air Flow Rate [m3/s], 6.49954E-002
 Component Sizing Information, AirLoopHVAC, SYS_3_PSZ ALL_ST=SALES AREA_FL=BUILDING STORY 1_SCH=C, Sum of Air Terminal Maximum Heating Flow Rates [m3/s], 0.13043
 Component Sizing Information, AirLoopHVAC, SYS_3_PSZ ALL_ST=SALES AREA_FL=BUILDING STORY 1_SCH=C, Sum of Air Terminal Minimum Heating Flow Rates [m3/s], 0.13043
 Component Sizing Information, AirLoopHVAC, SYS_3_PSZ ALL_ST=SALES AREA_FL=BUILDING STORY 1_SCH=C, Sum of Air Terminal Maximum Flow Rates [m3/s], 2.60860
 Component Sizing Information, AirLoopHVAC, SYS_3_PSZ ALL_ST=SALES AREA_FL=BUILDING STORY 1_SCH=C, Adjusted Heating Design Air Flow Rate [m3/s], 2.05203
 Component Sizing Information, AirLoopHVAC, SYS_3_PSZ ALL_ST=SALES AREA_FL=BUILDING STORY 1_SCH=C, Adjusted Cooling Design Air Flow Rate [m3/s], 2.60860
 Component Sizing Information, AirLoopHVAC, SYS_3_PSZ ALL_ST=SALES AREA_FL=BUILDING STORY 1_SCH=C, Adjusted Main Design Air Flow Rate [m3/s], 2.60860
 Component Sizing Information, AirLoopHVAC, SYS_3_PSZ ALL_ST=SALES AREA_FL=BUILDING STORY 1_SCH=C, User Heating Air Flow Ratio [], 1.00000
 Component Sizing Information, AirLoopHVAC, SYS_3_PSZ ALL_ST=SALES AREA_FL=BUILDING STORY 1_SCH=C, Calculated Heating Air Flow Ratio [], 0.78664
 Component Sizing Information, AirLoopHVAC, SYS_3_PSZ ALL_ST=SALES AREA_FL=BUILDING STORY 1_SCH=C 1, Sum of Air Terminal Maximum Heating Flow Rates [m3/s], 5.84237E-002
 Component Sizing Information, AirLoopHVAC, SYS_3_PSZ ALL_ST=SALES AREA_FL=BUILDING STORY 1_SCH=C 1, Sum of Air Terminal Minimum Heating Flow Rates [m3/s], 5.84237E-002
 Component Sizing Information, AirLoopHVAC, SYS_3_PSZ ALL_ST=SALES AREA_FL=BUILDING STORY 1_SCH=C 1, Sum of Air Terminal Maximum Flow Rates [m3/s], 1.16847
 Component Sizing Information, AirLoopHVAC, SYS_3_PSZ ALL_ST=SALES AREA_FL=BUILDING STORY 1_SCH=C 1, Adjusted Heating Design Air Flow Rate [m3/s], 0.33364
 Component Sizing Information, AirLoopHVAC, SYS_3_PSZ ALL_ST=SALES AREA_FL=BUILDING STORY 1_SCH=C 1, Adjusted Cooling Design Air Flow Rate [m3/s], 1.16847
 Component Sizing Information, AirLoopHVAC, SYS_3_PSZ ALL_ST=SALES AREA_FL=BUILDING STORY 1_SCH=C 1, Adjusted Main Design Air Flow Rate [m3/s], 1.16847
 Component Sizing Information, AirLoopHVAC, SYS_3_PSZ ALL_ST=SALES AREA_FL=BUILDING STORY 1_SCH=C 1, User Heating Air Flow Ratio [], 1.00000
 Component Sizing Information, AirLoopHVAC, SYS_3_PSZ ALL_ST=SALES AREA_FL=BUILDING STORY 1_SCH=C 1, Calculated Heating Air Flow Ratio [], 0.28553
 Component Sizing Information, AirLoopHVAC, SYS_3_PSZ ALL_ST=SALES AREA_FL=BUILDING STORY 1_SCH=C 2, Sum of Air Terminal Maximum Heating Flow Rates [m3/s], 6.49954E-002
 Component Sizing Information, AirLoopHVAC, SYS_3_PSZ ALL_ST=SALES AREA_FL=BUILDING STORY 1_SCH=C 2, Sum of Air Terminal Minimum Heating Flow Rates [m3/s], 6.49954E-002
 Component Sizing Information, AirLoopHVAC, SYS_3_PSZ ALL_ST=SALES AREA_FL=BUILDING STORY 1_SCH=C 2, Sum of Air Terminal Maximum Flow Rates [m3/s], 1.29991
 Component Sizing Information, AirLoopHVAC, SYS_3_PSZ ALL_ST=SALES AREA_FL=BUILDING STORY 1_SCH=C 2, Adjusted Heating Design Air Flow Rate [m3/s], 0.52386
 Component Sizing Information, AirLoopHVAC, SYS_3_PSZ ALL_ST=SALES AREA_FL=BUILDING STORY 1_SCH=C 2, Adjusted Cooling Design Air Flow Rate [m3/s], 1.29991
 Component Sizing Information, AirLoopHVAC, SYS_3_PSZ ALL_ST=SALES AREA_FL=BUILDING STORY 1_SCH=C 2, Adjusted Main Design Air Flow Rate [m3/s], 1.29991
 Component Sizing Information, AirLoopHVAC, SYS_3_PSZ ALL_ST=SALES AREA_FL=BUILDING STORY 1_SCH=C 2, User Heating Air Flow Ratio [], 1.00000
 Component Sizing Information, AirLoopHVAC, SYS_3_PSZ ALL_ST=SALES AREA_FL=BUILDING STORY 1_SCH=C 2, Calculated Heating Air Flow Ratio [], 0.40299
 Component Sizing Information, AirLoopHVAC, SYS_3_PSZ ALL_ST=SALES AREA_FL=BUILDING STORY 1_SCH=C, Design Supply Air Flow Rate [m3/s], 2.60860
 Component Sizing Information, AirLoopHVAC, SYS_3_PSZ ALL_ST=SALES AREA_FL=BUILDING STORY 1_SCH=C 1, Design Supply Air Flow Rate [m3/s], 1.16847
 Component Sizing Information, AirLoopHVAC, SYS_3_PSZ ALL_ST=SALES AREA_FL=BUILDING STORY 1_SCH=C 2, Design Supply Air Flow Rate [m3/s], 1.29991
!<Controller:MechanicalVentilation>,Name,Availability Schedule Name,Demand Controlled Ventilation {Yes/No},System Outdoor Air Method,Zone Maximum Outdoor Air Fraction,Number of Zones,Zone Name,DSOA Name,DSZAD Name
 Controller:MechanicalVentilation,CONTROLLER MECHANICAL VENTILATION 1,SYS_3_PSZ ALL_ST=SALES AREA_FL=BUILDING STORY 1_SCH=C OCC SCH,No,ZoneSum,1.00,1,ALL_ST=SALES AREA_FL=BUILDING STORY 1_SCH=C,SPACE FUNCTION SALES AREA VENTILATION,ALL_ST=SALES AREA_FL=BUILDING STORY 1_SCH=C DESIGN SPEC ZONE AIR DIST
 Controller:MechanicalVentilation,CONTROLLER MECHANICAL VENTILATION 2,SYS_3_PSZ ALL_ST=SALES AREA_FL=BUILDING STORY 1_SCH=C 1 OCC SCH,No,ZoneSum,1.00,1,ALL_ST=SALES AREA_FL=BUILDING STORY 1_SCH=C 1,SPACE FUNCTION SALES AREA VENTILATION,ALL_ST=SALES AREA_FL=BUILDING STORY 1_SCH=C 1 DESIGN SPEC ZONE AIR DIST
 Controller:MechanicalVentilation,CONTROLLER MECHANICAL VENTILATION 3,SYS_3_PSZ ALL_ST=SALES AREA_FL=BUILDING STORY 1_SCH=C 2 OCC SCH,No,ZoneSum,1.00,1,ALL_ST=SALES AREA_FL=BUILDING STORY 1_SCH=C 2,SPACE FUNCTION SALES AREA VENTILATION,ALL_ST=SALES AREA_FL=BUILDING STORY 1_SCH=C 2 DESIGN SPEC ZONE AIR DIST
 Component Sizing Information, Coil:Cooling:DX:SingleSpeed, COIL COOLING DX SINGLE SPEED 1 366KBTU/HR 8.39EER, Design Size Rated Air Flow Rate [m3/s], 2.60860
 Component Sizing Information, Coil:Cooling:DX:SingleSpeed, COIL COOLING DX SINGLE SPEED 1 366KBTU/HR 8.39EER, Design Size Gross Rated Total Cooling Capacity [W], 43793.44409
 Component Sizing Information, Coil:Cooling:DX:SingleSpeed, COIL COOLING DX SINGLE SPEED 1 366KBTU/HR 8.39EER, Design Size Gross Rated Sensible Heat Ratio, 0.80052
! <DX Cooling Coil Standard Rating Information>, Component Type, Component Name, Standard Rating (Net) Cooling Capacity {W}, Standard Rated Net COP {W/W}, EER {Btu/W-h}, SEER {Btu/W-h}, IEER {Btu/W-h}
 DX Cooling Coil Standard Rating Information, Coil:Cooling:DX:SingleSpeed, COIL COOLING DX SINGLE SPEED 1 366KBTU/HR 8.39EER, 41765.6, 2.57, 8.77, 9.26, 8.83
 Component Sizing Information, Coil:Heating:Electric, COIL HEATING ELECTRIC 1, Design Size Nominal Capacity [W], 123988.39219
 Component Sizing Information, Fan:VariableVolume, FAN VARIABLE VOLUME 3, Design Size Maximum Flow Rate [m3/s], 2.60860
 Component Sizing Information, Coil:Cooling:DX:SingleSpeed, COIL COOLING DX SINGLE SPEED 2 101KBTU/HR 9.44EER, Design Size Rated Air Flow Rate [m3/s], 1.16847
 Component Sizing Information, Coil:Cooling:DX:SingleSpeed, COIL COOLING DX SINGLE SPEED 2 101KBTU/HR 9.44EER, Design Size Gross Rated Total Cooling Capacity [W], 19342.40663
 Component Sizing Information, Coil:Cooling:DX:SingleSpeed, COIL COOLING DX SINGLE SPEED 2 101KBTU/HR 9.44EER, Design Size Gross Rated Sensible Heat Ratio, 0.80066
 DX Cooling Coil Standard Rating Information, Coil:Cooling:DX:SingleSpeed, COIL COOLING DX SINGLE SPEED 2 101KBTU/HR 9.44EER, 18434.1, 2.70, 9.21, 9.73, 9.22
 Component Sizing Information, Coil:Heating:Electric, COIL HEATING ELECTRIC 2, Design Size Nominal Capacity [W], 36455.89137
 Component Sizing Information, Fan:VariableVolume, FAN VARIABLE VOLUME 2, Design Size Maximum Flow Rate [m3/s], 1.16847
 Component Sizing Information, Coil:Cooling:DX:SingleSpeed, COIL COOLING DX SINGLE SPEED 3 124KBTU/HR 9.44EER, Design Size Rated Air Flow Rate [m3/s], 1.29991
 Component Sizing Information, Coil:Cooling:DX:SingleSpeed, COIL COOLING DX SINGLE SPEED 3 124KBTU/HR 9.44EER, Design Size Gross Rated Total Cooling Capacity [W], 21518.09578
 Component Sizing Information, Coil:Cooling:DX:SingleSpeed, COIL COOLING DX SINGLE SPEED 3 124KBTU/HR 9.44EER, Design Size Gross Rated Sensible Heat Ratio, 0.80066
 DX Cooling Coil Standard Rating Information, Coil:Cooling:DX:SingleSpeed, COIL COOLING DX SINGLE SPEED 3 124KBTU/HR 9.44EER, 20507.7, 2.71, 9.26, 9.77, 9.25
 Component Sizing Information, Coil:Heating:Electric, COIL HEATING ELECTRIC 3, Design Size Nominal Capacity [W], 46141.12912
 Component Sizing Information, Fan:VariableVolume, FAN VARIABLE VOLUME 1, Design Size Maximum Flow Rate [m3/s], 1.29991
 Component Sizing Information, Coil:WaterHeating:AirToWaterHeatPump:Pumped, COIL WATER HEATING AIR TO WATER HEAT PUMP 1, Design Size Rated Evaporator Air Flow Rate [m3/s], 0.13319
 Component Sizing Information, Coil:WaterHeating:AirToWaterHeatPump:Pumped, COIL WATER HEATING AIR TO WATER HEAT PUMP 1, Design Size Rated Condenser Water Flow Rate [m3/s], 1.18690E-004
 Component Sizing Information, Fan:OnOff, FAN ON OFF 1, Design Size Maximum Flow Rate [m3/s], 0.13319
Heat Pump Water Heater Information,WaterHeater:HeatPump:PumpedCondenser,13GAL ELECTRICITY WATER HEATER - 9KBTU/HR 1.0 THERM EFF ASHPWH,5.0625E-002,2178.0,9.431,1.8535,1701
 Component Sizing Information, WaterHeater:HeatPump:PumpedCondenser, 13GAL ELECTRICITY WATER HEATER - 9KBTU/HR 1.0 THERM EFF ASHPWH, Condenser water flow rate [m3/s], 1.18690E-004
 Component Sizing Information, WaterHeater:HeatPump:PumpedCondenser, 13GAL ELECTRICITY WATER HEATER - 9KBTU/HR 1.0 THERM EFF ASHPWH, Evaporator air flow rate [m3/s], 0.13319
 Component Sizing Information, PlantLoop, MAIN SERVICE WATER LOOP, Maximum Loop Flow Rate [m3/s], 1.48029E-005
 Component Sizing Information, PlantLoop, MAIN SERVICE WATER LOOP, Plant Loop Volume [m3], 1.77635E-003
 Component Sizing Information, Pump:ConstantSpeed, SERVICE WATER LOOP PUMP, Design Flow Rate [m3/s], 1.48029E-005
 Component Sizing Information, Pump:ConstantSpeed, SERVICE WATER LOOP PUMP, Design Power Consumption [W], 4.06574E-003
 Component Sizing Information, WaterHeater:Mixed, 13GAL ELECTRICITY WATER HEATER - 9KBTU/HR 1.0 THERM EFF, Use Side Design Flow Rate [m3/s], 1.48029E-005
! <Environment>,Environment Name,Environment Type, Start Date, End Date, Start DayOfWeek, Duration {#days}, Source:Start DayOfWeek,  Use Daylight Saving, Use Holidays, Apply Weekend Holiday Rule,  Use Rain Values, Use Snow Values
! <Environment:Special Days>, Special Day Name, Special Day Type, Source, Start Date, Duration {#days}
! <Environment:Daylight Saving>, Daylight Saving Indicator, Source, Start Date, End Date
! <Environment:WarmupDays>, NumberofWarmupDays
Environment,RUN PERIOD 1,WeatherFileRunPeriod,01/01,12/31,Sunday,365,Use RunPeriod Specified Day,No,No,No,Yes,Yes
Environment:Daylight Saving,No,RunPeriod Object
Environment:WarmupDays,  6
! <Tabular Report>,Style,Unit Conversion
Tabular Report,HTML,None
! <Warmup Convergence Information>,Zone Name,Environment Type/Name,Average Warmup Temperature Difference {deltaC},Std Dev Warmup Temperature Difference {deltaC},Max Temperature Pass/Fail Convergence,Min Temperature Pass/Fail Convergence,Average Warmup Load Difference {W},Std Dev Warmup Load Difference {W},Heating Load Pass/Fail Convergence,Cooling Load Pass/Fail Convergence
 Warmup Convergence Information,ALL_ST=SALES AREA_FL=BUILDING STORY 1_SCH=C,RunPeriod: RUN PERIOD 1,0.4999892187,0.6951844035,Pass,Pass,4.8250125117,19.3533068273,Pass,Pass
 Warmup Convergence Information,ALL_ST=SALES AREA_FL=BUILDING STORY 1_SCH=C 1,RunPeriod: RUN PERIOD 1,0.4995044178,0.7418157473,Pass,Pass,4.7913719168,13.5816807307,Pass,Pass
 Warmup Convergence Information,ALL_ST=SALES AREA_FL=BUILDING STORY 1_SCH=C 2,RunPeriod: RUN PERIOD 1,0.4998661321,0.7422250722,Pass,Pass,2.6075801674,10.9147426744,Pass,Pass
! <Program Control Information:Threads/Parallel Sims>, Threading Supported,Maximum Number of Threads, Env Set Threads (OMP_NUM_THREADS), EP Env Set Threads (EP_OMP_NUM_THREADS), IDF Set Threads, Number of Threads Used (Interior Radiant Exchange), Number Nominal Surfaces, Number Parallel Sims
Program Control:Threads/Parallel Sims, No,1, N/A, N/A, N/A, N/A, N/A, N/A
End of Data
