Program Version,EnergyPlus, Version 8.9.0-eba93e8e1b, YMD=2019.08.13 17:35
! This file shows details about the branches, nodes, and other
! elements of the flow connections.
! This file is intended for use in "debugging" potential problems
! that may also be detected by the program, but may be more easily
! identified by "eye".
! This file is also intended to support software which draws a
! schematic diagram of the HVAC system.
! ===============================================================
! #Nodes,<Number of Unique Nodes>
 #Nodes,103
! <Node>,<NodeNumber>,<Node Name>,<Node Fluid Type>,<# Times Node Referenced After Definition>
 Node,1,NODE 8,Air,3
 Node,2,NODE 82,Air,3
 Node,3,NODE 84,Air,2
 Node,4,NODE 81,Air,3
 Node,5,NODE 83,Air,2
 Node,6,NODE 19,Air,3
 Node,7,NODE 80,Air,3
 Node,8,NODE 79,Air,3
 Node,9,NODE 30,Air,3
 Node,10,NODE 78,Air,3
 Node,11,NODE 77,Air,3
 Node,12,NODE 3,Air,11
 Node,13,NODE 5,Air,3
 Node,14,NODE 16,Air,11
 Node,15,NODE 17,Air,3
 Node,16,NODE 27,Air,11
 Node,17,NODE 28,Air,3
 Node,18,NODE 2,Air,3
 Node,19,NODE 13,Air,6
 Node,20,NODE 12,Air,6
 Node,21,NODE 75,Air,7
 Node,22,NODE 15,Air,3
 Node,23,NODE 24,Air,6
 Node,24,NODE 23,Air,6
 Node,25,NODE 73,Air,7
 Node,26,NODE 26,Air,3
 Node,27,NODE 35,Air,6
 Node,28,NODE 34,Air,6
 Node,29,NODE 71,Air,7
 Node,30,NODE 37,Water,2
 Node,31,NODE 43,Water,1
 Node,32,NODE 39,Water,2
 Node,33,NODE 44,Water,2
 Node,34,NODE 45,Water,1
 Node,35,NODE 46,Water,1
 Node,36,NODE 48,Water,1
 Node,37,NODE 38,Water,4
 Node,38,NODE 40,Water,2
 Node,39,NODE 49,Water,1
 Node,40,NODE 42,Water,1
 Node,41,NODE 47,Water,1
 Node,42,NODE 51,Water,1
 Node,43,NODE 52,Water,1
 Node,44,NODE 53,Water,1
 Node,45,NODE 54,Water,1
 Node,46,NODE 55,Water,1
 Node,47,NODE 56,Water,1
 Node,48,NODE 57,Water,1
 Node,49,NODE 58,Water,1
 Node,50,NODE 59,Water,1
 Node,51,NODE 60,Water,1
 Node,52,NODE 61,Water,1
 Node,53,NODE 62,Water,1
 Node,54,NODE 63,Water,1
 Node,55,NODE 64,Water,1
 Node,56,NODE 65,Water,1
 Node,57,NODE 66,Water,1
 Node,58,NODE 67,Water,1
 Node,59,NODE 68,Water,1
 Node,60,NODE 69,Water,1
 Node,61,NODE 70,Water,1
 Node,62,MAIN SERVICE WATER LOOP DEMAND BYPASS PIPE INLET NODE,Water,1
 Node,63,MAIN SERVICE WATER LOOP DEMAND BYPASS PIPE OUTLET NODE,Water,1
 Node,64,NODE 50,Water,1
 Node,65,NODE 41,Water,2
 Node,66,NODE 1,Air,0
 Node,67,NODE 14,Air,1
 Node,68,NODE 4,Air,0
 Node,69,NODE 25,Air,1
 Node,70,NODE 7,Air,0
 Node,71,NODE 36,Air,1
 Node,72,NODE 6,Air,2
 Node,73,NODE 18,Air,2
 Node,74,NODE 29,Air,2
 Node,75,13GAL ELECTRICITY WATER HEATER - 9KBTU/HR 1.0 THERM EFF ASHPWH TANK OUTLET - CONDENSER INLET,Water,2
 Node,76,13GAL ELECTRICITY WATER HEATER - 9KBTU/HR 1.0 THERM EFF ASHPWH CONDENSER OUTLET - TANK INLET,Water,2
 Node,77,13GAL ELECTRICITY WATER HEATER - 9KBTU/HR 1.0 THERM EFF ASHPWH MIXER OUTLET - EVAP INLET,Air,1
 Node,78,13GAL ELECTRICITY WATER HEATER - 9KBTU/HR 1.0 THERM EFF ASHPWH EVAP OUTLET - FAN INLET,Air,1
 Node,79,ALL_ST=SALES AREA_FL=BUILDING STORY 1_SCH=C ERV DOAS OA NODE,Air,2
 Node,80,ALL_ST=SALES AREA_FL=BUILDING STORY 1_SCH=C 1 ERV DOAS OA NODE,Air,2
 Node,81,ALL_ST=SALES AREA_FL=BUILDING STORY 1_SCH=C 2 ERV DOAS OA NODE,Air,2
 Node,82,NODE 9,Air,2
 Node,83,NODE 20,Air,2
 Node,84,NODE 31,Air,2
 Node,85,MODEL OUTDOOR AIR NODE,Air,0
 Node,86,13GAL ELECTRICITY WATER HEATER - 9KBTU/HR 1.0 THERM EFF ASHPWH FAN OUTLET - SPLITTER INLET,Air,1
 Node,87,ALL_ST=SALES AREA_FL=BUILDING STORY 1_SCH=C ERV DOAS SUPPLY FAN INLET NODE,Air,1
 Node,88,ALL_ST=SALES AREA_FL=BUILDING STORY 1_SCH=C ERV DOAS EXHAUST FAN INLET NODE,Air,1
 Node,89,ALL_ST=SALES AREA_FL=BUILDING STORY 1_SCH=C ERV DOAS EXHAUST FAN OUTLET NODE,Air,1
 Node,90,ALL_ST=SALES AREA_FL=BUILDING STORY 1_SCH=C 1 ERV DOAS SUPPLY FAN INLET NODE,Air,1
 Node,91,ALL_ST=SALES AREA_FL=BUILDING STORY 1_SCH=C 1 ERV DOAS EXHAUST FAN INLET NODE,Air,1
 Node,92,ALL_ST=SALES AREA_FL=BUILDING STORY 1_SCH=C 1 ERV DOAS EXHAUST FAN OUTLET NODE,Air,1
 Node,93,ALL_ST=SALES AREA_FL=BUILDING STORY 1_SCH=C 2 ERV DOAS SUPPLY FAN INLET NODE,Air,1
 Node,94,ALL_ST=SALES AREA_FL=BUILDING STORY 1_SCH=C 2 ERV DOAS EXHAUST FAN INLET NODE,Air,1
 Node,95,ALL_ST=SALES AREA_FL=BUILDING STORY 1_SCH=C 2 ERV DOAS EXHAUST FAN OUTLET NODE,Air,1
 Node,96,13GAL ELECTRICITY WATER HEATER - 9KBTU/HR 1.0 THERM EFF ASHPWH OUTDOOR AIR,Air,1
 Node,97,13GAL ELECTRICITY WATER HEATER - 9KBTU/HR 1.0 THERM EFF ASHPWH EXHAUST AIR,Air,0
 Node,98,NODE 76,Air,1
 Node,99,NODE 74,Air,1
 Node,100,NODE 72,Air,1
 Node,101,NODE 10,Air,1
 Node,102,NODE 21,Air,1
 Node,103,NODE 32,Air,1
! ===============================================================
! Suspicious nodes have 0 references.  It is normal for some nodes, however.
! Listing nodes with 0 references (culled from previous list):
! <Suspicious Node>,<NodeNumber>,<Node Name>,<Node Fluid Type>,<# Times Node Referenced After Definition>
 Suspicious Node,66,NODE 1,Air,0
 Suspicious Node,68,NODE 4,Air,0
 Suspicious Node,70,NODE 7,Air,0
 Suspicious Node,85,MODEL OUTDOOR AIR NODE,Air,0
 Suspicious Node,97,13GAL ELECTRICITY WATER HEATER - 9KBTU/HR 1.0 THERM EFF ASHPWH EXHAUST AIR,Air,0
! ===============================================================
! <#Branch Lists>,<Number of Branch Lists>
 #Branch Lists,5
! <Branch List>,<Branch List Count>,<Branch List Name>,<Loop Name>,<Loop Type>,<Number of Branches>
! <Branch>,<Branch Count>,<Branch Name>,<Loop Name>,<Loop Type>,<Branch Inlet Node Name>,<Branch Outlet Node Name>
 Branch List,1,SYS_3_PSZ ALL_ST=SALES AREA_FL=BUILDING STORY 1_SCH=C SUPPLY BRANCHES,SYS_3_PSZ ALL_ST=SALES AREA_FL=BUILDING STORY 1_SCH=C,Air,1
   Branch,1,SYS_3_PSZ ALL_ST=SALES AREA_FL=BUILDING STORY 1_SCH=C MAIN BRANCH,SYS_3_PSZ ALL_ST=SALES AREA_FL=BUILDING STORY 1_SCH=C,Air,NODE 2,NODE 3
 Branch List,2,SYS_3_PSZ ALL_ST=SALES AREA_FL=BUILDING STORY 1_SCH=C 1 SUPPLY BRANCHES,SYS_3_PSZ ALL_ST=SALES AREA_FL=BUILDING STORY 1_SCH=C 1,Air,1
   Branch,1,SYS_3_PSZ ALL_ST=SALES AREA_FL=BUILDING STORY 1_SCH=C 1 MAIN BRANCH,SYS_3_PSZ ALL_ST=SALES AREA_FL=BUILDING STORY 1_SCH=C 1,Air,NODE 15,NODE 16
 Branch List,3,SYS_3_PSZ ALL_ST=SALES AREA_FL=BUILDING STORY 1_SCH=C 2 SUPPLY BRANCHES,SYS_3_PSZ ALL_ST=SALES AREA_FL=BUILDING STORY 1_SCH=C 2,Air,1
   Branch,1,SYS_3_PSZ ALL_ST=SALES AREA_FL=BUILDING STORY 1_SCH=C 2 MAIN BRANCH,SYS_3_PSZ ALL_ST=SALES AREA_FL=BUILDING STORY 1_SCH=C 2,Air,NODE 26,NODE 27
 Branch List,4,MAIN SERVICE WATER LOOP SUPPLY BRANCHES,MAIN SERVICE WATER LOOP,Plant Supply,4
   Branch,1,MAIN SERVICE WATER LOOP SUPPLY INLET BRANCH,MAIN SERVICE WATER LOOP,Plant Supply,NODE 37,NODE 43
   Branch,2,MAIN SERVICE WATER LOOP SUPPLY BRANCH 1,MAIN SERVICE WATER LOOP,Plant Supply,NODE 39,NODE 44
   Branch,3,MAIN SERVICE WATER LOOP SUPPLY BRANCH 2,MAIN SERVICE WATER LOOP,Plant Supply,NODE 45,NODE 46
   Branch,4,MAIN SERVICE WATER LOOP SUPPLY OUTLET BRANCH,MAIN SERVICE WATER LOOP,Plant Supply,NODE 48,NODE 38
 Branch List,5,MAIN SERVICE WATER LOOP DEMAND BRANCHES,MAIN SERVICE WATER LOOP,Plant Demand,14
   Branch,1,MAIN SERVICE WATER LOOP DEMAND INLET BRANCH,MAIN SERVICE WATER LOOP,Plant Demand,NODE 40,NODE 49
   Branch,2,MAIN SERVICE WATER LOOP DEMAND BRANCH 1,MAIN SERVICE WATER LOOP,Plant Demand,NODE 42,NODE 47
   Branch,3,MAIN SERVICE WATER LOOP DEMAND BRANCH 2,MAIN SERVICE WATER LOOP,Plant Demand,NODE 51,NODE 52
   Branch,4,MAIN SERVICE WATER LOOP DEMAND BRANCH 3,MAIN SERVICE WATER LOOP,Plant Demand,NODE 53,NODE 54
   Branch,5,MAIN SERVICE WATER LOOP DEMAND BRANCH 4,MAIN SERVICE WATER LOOP,Plant Demand,NODE 55,NODE 56
   Branch,6,MAIN SERVICE WATER LOOP DEMAND BRANCH 5,MAIN SERVICE WATER LOOP,Plant Demand,NODE 57,NODE 58
   Branch,7,MAIN SERVICE WATER LOOP DEMAND BRANCH 6,MAIN SERVICE WATER LOOP,Plant Demand,NODE 59,NODE 60
   Branch,8,MAIN SERVICE WATER LOOP DEMAND BRANCH 7,MAIN SERVICE WATER LOOP,Plant Demand,NODE 61,NODE 62
   Branch,9,MAIN SERVICE WATER LOOP DEMAND BRANCH 8,MAIN SERVICE WATER LOOP,Plant Demand,NODE 63,NODE 64
   Branch,10,MAIN SERVICE WATER LOOP DEMAND BRANCH 9,MAIN SERVICE WATER LOOP,Plant Demand,NODE 65,NODE 66
   Branch,11,MAIN SERVICE WATER LOOP DEMAND BRANCH 10,MAIN SERVICE WATER LOOP,Plant Demand,NODE 67,NODE 68
   Branch,12,MAIN SERVICE WATER LOOP DEMAND BRANCH 11,MAIN SERVICE WATER LOOP,Plant Demand,NODE 69,NODE 70
   Branch,13,MAIN SERVICE WATER LOOP DEMAND BYPASS BRANCH,MAIN SERVICE WATER LOOP,Plant Demand,MAIN SERVICE WATER LOOP DEMAND BYPASS PIPE INLET NODE,MAIN SERVICE WATER LOOP DEMAND BYPASS PIPE OUTLET NODE
   Branch,14,MAIN SERVICE WATER LOOP DEMAND OUTLET BRANCH,MAIN SERVICE WATER LOOP,Plant Demand,NODE 50,NODE 41
! ===============================================================
! <#Supply Air Paths>,<Number of Supply Air Paths>
 #Supply Air Paths,3
! <Supply Air Path>,<Supply Air Path Count>,<Supply Air Path Name>,<AirLoopHVAC Name>
! <#Components on Supply Air Path>,<Number of Components>
! <Supply Air Path Component>,<Component Count>,<Component Type>,<Component Name>,<AirLoopHVAC Name>
! <#Outlet Nodes on Supply Air Path Component>,<Number of Nodes>
! <Supply Air Path Component Nodes>,<Node Count>,<Component Type>,<Component Name>,<Inlet Node Name>,<Outlet Node Name>,<AirLoopHVAC Name>
 Supply Air Path,1,SYS_3_PSZ ALL_ST=SALES AREA_FL=BUILDING STORY 1_SCH=C NODE 5 SUPPLY PATH,SYS_3_PSZ ALL_ST=SALES AREA_FL=BUILDING STORY 1_SCH=C
   #Components on Supply Air Path,1
   Supply Air Path Component,1,AIRLOOPHVAC:ZONESPLITTER,AIR LOOP HVAC ZONE SPLITTER 1,SYS_3_PSZ ALL_ST=SALES AREA_FL=BUILDING STORY 1_SCH=C
     #Outlet Nodes on Supply Air Path Component,1
     Supply Air Path Component Nodes,1,AIRLOOPHVAC:ZONESPLITTER,AIR LOOP HVAC ZONE SPLITTER 1,NODE 5,NODE 76,SYS_3_PSZ ALL_ST=SALES AREA_FL=BUILDING STORY 1_SCH=C
! <#Nodes on Supply Air Path>,<Number of Nodes>
! <Supply Air Path Node>,<Node Type>,<Node Count>,<Node Name>,<AirLoopHVAC Name>
#Nodes on Supply Air Path,2
   Supply Air Path Node,Inlet Node,1,NODE 5,SYS_3_PSZ ALL_ST=SALES AREA_FL=BUILDING STORY 1_SCH=C
   Supply Air Path Node,Outlet Node,2,NODE 76,SYS_3_PSZ ALL_ST=SALES AREA_FL=BUILDING STORY 1_SCH=C
 Supply Air Path,2,SYS_3_PSZ ALL_ST=SALES AREA_FL=BUILDING STORY 1_SCH=C 1 NODE 17 SUPPLY PATH,SYS_3_PSZ ALL_ST=SALES AREA_FL=BUILDING STORY 1_SCH=C 1
   #Components on Supply Air Path,1
   Supply Air Path Component,1,AIRLOOPHVAC:ZONESPLITTER,AIR LOOP HVAC ZONE SPLITTER 2,SYS_3_PSZ ALL_ST=SALES AREA_FL=BUILDING STORY 1_SCH=C 1
     #Outlet Nodes on Supply Air Path Component,1
     Supply Air Path Component Nodes,1,AIRLOOPHVAC:ZONESPLITTER,AIR LOOP HVAC ZONE SPLITTER 2,NODE 17,NODE 74,SYS_3_PSZ ALL_ST=SALES AREA_FL=BUILDING STORY 1_SCH=C 1
! <#Nodes on Supply Air Path>,<Number of Nodes>
! <Supply Air Path Node>,<Node Type>,<Node Count>,<Node Name>,<AirLoopHVAC Name>
#Nodes on Supply Air Path,2
   Supply Air Path Node,Inlet Node,1,NODE 17,SYS_3_PSZ ALL_ST=SALES AREA_FL=BUILDING STORY 1_SCH=C 1
   Supply Air Path Node,Outlet Node,2,NODE 74,SYS_3_PSZ ALL_ST=SALES AREA_FL=BUILDING STORY 1_SCH=C 1
 Supply Air Path,3,SYS_3_PSZ ALL_ST=SALES AREA_FL=BUILDING STORY 1_SCH=C 2 NODE 28 SUPPLY PATH,SYS_3_PSZ ALL_ST=SALES AREA_FL=BUILDING STORY 1_SCH=C 2
   #Components on Supply Air Path,1
   Supply Air Path Component,1,AIRLOOPHVAC:ZONESPLITTER,AIR LOOP HVAC ZONE SPLITTER 3,SYS_3_PSZ ALL_ST=SALES AREA_FL=BUILDING STORY 1_SCH=C 2
     #Outlet Nodes on Supply Air Path Component,1
     Supply Air Path Component Nodes,1,AIRLOOPHVAC:ZONESPLITTER,AIR LOOP HVAC ZONE SPLITTER 3,NODE 28,NODE 72,SYS_3_PSZ ALL_ST=SALES AREA_FL=BUILDING STORY 1_SCH=C 2
! <#Nodes on Supply Air Path>,<Number of Nodes>
! <Supply Air Path Node>,<Node Type>,<Node Count>,<Node Name>,<AirLoopHVAC Name>
#Nodes on Supply Air Path,2
   Supply Air Path Node,Inlet Node,1,NODE 28,SYS_3_PSZ ALL_ST=SALES AREA_FL=BUILDING STORY 1_SCH=C 2
   Supply Air Path Node,Outlet Node,2,NODE 72,SYS_3_PSZ ALL_ST=SALES AREA_FL=BUILDING STORY 1_SCH=C 2
! ===============================================================
! <#Return Air Paths>,<Number of Return Air Paths>
 #Return Air Paths,3
! <Return Air Path>,<Return Air Path Count>,<Return Air Path Name>,<AirLoopHVAC Name>
! <#Components on Return Air Path>,<Number of Components>
! <Return Air Path Component>,<Component Count>,<Component Type>,<Component Name>,<AirLoopHVAC Name>
! <#Inlet Nodes on Return Air Path Component>,<Number of Nodes>
! <Return Air Path Component Nodes>,<Node Count>,<Component Type>,<Component Name>,<Inlet Node Name>,<Outlet Node Name>,<AirLoopHVAC Name>
 Return Air Path,1,SYS_3_PSZ ALL_ST=SALES AREA_FL=BUILDING STORY 1_SCH=C RETURN PATH,SYS_3_PSZ ALL_ST=SALES AREA_FL=BUILDING STORY 1_SCH=C
   #Components on Return Air Path,1
   Return Air Path Component,1,AIRLOOPHVAC:ZONEMIXER,AIR LOOP HVAC ZONE MIXER 1,SYS_3_PSZ ALL_ST=SALES AREA_FL=BUILDING STORY 1_SCH=C
     #Inlet Nodes on Return Air Path Component,1
     Return Air Path Component Nodes,1,AIRLOOPHVAC:ZONEMIXER,AIR LOOP HVAC ZONE MIXER 1,NODE 14,NODE 6,SYS_3_PSZ ALL_ST=SALES AREA_FL=BUILDING STORY 1_SCH=C
! <#Nodes on Return Air Path>,<Number of Nodes>
! <Return Air Path Node>,<Node Type>,<Node Count>,<Node Name>,<AirLoopHVAC Name>
   #Nodes on Return Air Path,2
   Return Air Path Node,Outlet Node,1,NODE 6,SYS_3_PSZ ALL_ST=SALES AREA_FL=BUILDING STORY 1_SCH=C
   Return Air Path Node,Inlet Node,2,NODE 14,SYS_3_PSZ ALL_ST=SALES AREA_FL=BUILDING STORY 1_SCH=C
 Return Air Path,2,SYS_3_PSZ ALL_ST=SALES AREA_FL=BUILDING STORY 1_SCH=C 1 RETURN PATH,SYS_3_PSZ ALL_ST=SALES AREA_FL=BUILDING STORY 1_SCH=C 1
   #Components on Return Air Path,1
   Return Air Path Component,1,AIRLOOPHVAC:ZONEMIXER,AIR LOOP HVAC ZONE MIXER 2,SYS_3_PSZ ALL_ST=SALES AREA_FL=BUILDING STORY 1_SCH=C 1
     #Inlet Nodes on Return Air Path Component,1
     Return Air Path Component Nodes,1,AIRLOOPHVAC:ZONEMIXER,AIR LOOP HVAC ZONE MIXER 2,NODE 25,NODE 18,SYS_3_PSZ ALL_ST=SALES AREA_FL=BUILDING STORY 1_SCH=C 1
! <#Nodes on Return Air Path>,<Number of Nodes>
! <Return Air Path Node>,<Node Type>,<Node Count>,<Node Name>,<AirLoopHVAC Name>
   #Nodes on Return Air Path,2
   Return Air Path Node,Outlet Node,1,NODE 18,SYS_3_PSZ ALL_ST=SALES AREA_FL=BUILDING STORY 1_SCH=C 1
   Return Air Path Node,Inlet Node,2,NODE 25,SYS_3_PSZ ALL_ST=SALES AREA_FL=BUILDING STORY 1_SCH=C 1
 Return Air Path,3,SYS_3_PSZ ALL_ST=SALES AREA_FL=BUILDING STORY 1_SCH=C 2 RETURN PATH,SYS_3_PSZ ALL_ST=SALES AREA_FL=BUILDING STORY 1_SCH=C 2
   #Components on Return Air Path,1
   Return Air Path Component,1,AIRLOOPHVAC:ZONEMIXER,AIR LOOP HVAC ZONE MIXER 3,SYS_3_PSZ ALL_ST=SALES AREA_FL=BUILDING STORY 1_SCH=C 2
     #Inlet Nodes on Return Air Path Component,1
     Return Air Path Component Nodes,1,AIRLOOPHVAC:ZONEMIXER,AIR LOOP HVAC ZONE MIXER 3,NODE 36,NODE 29,SYS_3_PSZ ALL_ST=SALES AREA_FL=BUILDING STORY 1_SCH=C 2
! <#Nodes on Return Air Path>,<Number of Nodes>
! <Return Air Path Node>,<Node Type>,<Node Count>,<Node Name>,<AirLoopHVAC Name>
   #Nodes on Return Air Path,2
   Return Air Path Node,Outlet Node,1,NODE 29,SYS_3_PSZ ALL_ST=SALES AREA_FL=BUILDING STORY 1_SCH=C 2
   Return Air Path Node,Inlet Node,2,NODE 36,SYS_3_PSZ ALL_ST=SALES AREA_FL=BUILDING STORY 1_SCH=C 2
! ===============================================================
! #Outdoor Air Nodes,<Number of Outdoor Air Nodes>
 #Outdoor Air Nodes,8
! <Outdoor Air Node>,<NodeNumber>,<Node Name>
 Outdoor Air Node,79,ALL_ST=SALES AREA_FL=BUILDING STORY 1_SCH=C ERV DOAS OA NODE
 Outdoor Air Node,80,ALL_ST=SALES AREA_FL=BUILDING STORY 1_SCH=C 1 ERV DOAS OA NODE
 Outdoor Air Node,81,ALL_ST=SALES AREA_FL=BUILDING STORY 1_SCH=C 2 ERV DOAS OA NODE
 Outdoor Air Node,82,NODE 9
 Outdoor Air Node,83,NODE 20
 Outdoor Air Node,84,NODE 31
 Outdoor Air Node,85,MODEL OUTDOOR AIR NODE
 Outdoor Air Node,96,13GAL ELECTRICITY WATER HEATER - 9KBTU/HR 1.0 THERM EFF ASHPWH OUTDOOR AIR
! ===============================================================
! <#Component Sets>,<Number of Component Sets>
 #Component Sets,52
! <Component Set>,<Component Set Count>,<Parent Object Type>,<Parent Object Name>,<Component Type>,<Component Name>,<Inlet Node ID>,<Outlet Node ID>,<Description>
 Component Set,1,BRANCH,SYS_3_PSZ ALL_ST=SALES AREA_FL=BUILDING STORY 1_SCH=C MAIN BRANCH,AIRLOOPHVAC:OUTDOORAIRSYSTEM,AIR LOOP HVAC OUTDOOR AIR SYSTEM 1,NODE 2,NODE 13,Air Nodes
 Component Set,2,BRANCH,SYS_3_PSZ ALL_ST=SALES AREA_FL=BUILDING STORY 1_SCH=C MAIN BRANCH,COILSYSTEM:COOLING:DX,COIL COOLING DX SINGLE SPEED 1 366KBTU/HR 8.39EER COILSYSTEM,NODE 13,NODE 12,Air Nodes
 Component Set,3,BRANCH,SYS_3_PSZ ALL_ST=SALES AREA_FL=BUILDING STORY 1_SCH=C MAIN BRANCH,COIL:HEATING:ELECTRIC,COIL HEATING ELECTRIC 1,NODE 12,NODE 75,Air Nodes
 Component Set,4,BRANCH,SYS_3_PSZ ALL_ST=SALES AREA_FL=BUILDING STORY 1_SCH=C MAIN BRANCH,FAN:VARIABLEVOLUME,FAN VARIABLE VOLUME 3,NODE 75,NODE 3,Air Nodes
 Component Set,5,BRANCH,SYS_3_PSZ ALL_ST=SALES AREA_FL=BUILDING STORY 1_SCH=C 1 MAIN BRANCH,AIRLOOPHVAC:OUTDOORAIRSYSTEM,AIR LOOP HVAC OUTDOOR AIR SYSTEM 2,NODE 15,NODE 24,Air Nodes
 Component Set,6,BRANCH,SYS_3_PSZ ALL_ST=SALES AREA_FL=BUILDING STORY 1_SCH=C 1 MAIN BRANCH,COILSYSTEM:COOLING:DX,COIL COOLING DX SINGLE SPEED 2 101KBTU/HR 9.44EER COILSYSTEM,NODE 24,NODE 23,Air Nodes
 Component Set,7,BRANCH,SYS_3_PSZ ALL_ST=SALES AREA_FL=BUILDING STORY 1_SCH=C 1 MAIN BRANCH,COIL:HEATING:ELECTRIC,COIL HEATING ELECTRIC 2,NODE 23,NODE 73,Air Nodes
 Component Set,8,BRANCH,SYS_3_PSZ ALL_ST=SALES AREA_FL=BUILDING STORY 1_SCH=C 1 MAIN BRANCH,FAN:VARIABLEVOLUME,FAN VARIABLE VOLUME 2,NODE 73,NODE 16,Air Nodes
 Component Set,9,BRANCH,SYS_3_PSZ ALL_ST=SALES AREA_FL=BUILDING STORY 1_SCH=C 2 MAIN BRANCH,AIRLOOPHVAC:OUTDOORAIRSYSTEM,AIR LOOP HVAC OUTDOOR AIR SYSTEM 3,NODE 26,NODE 35,Air Nodes
 Component Set,10,BRANCH,SYS_3_PSZ ALL_ST=SALES AREA_FL=BUILDING STORY 1_SCH=C 2 MAIN BRANCH,COILSYSTEM:COOLING:DX,COIL COOLING DX SINGLE SPEED 3 124KBTU/HR 9.44EER COILSYSTEM,NODE 35,NODE 34,Air Nodes
 Component Set,11,BRANCH,SYS_3_PSZ ALL_ST=SALES AREA_FL=BUILDING STORY 1_SCH=C 2 MAIN BRANCH,COIL:HEATING:ELECTRIC,COIL HEATING ELECTRIC 3,NODE 34,NODE 71,Air Nodes
 Component Set,12,BRANCH,SYS_3_PSZ ALL_ST=SALES AREA_FL=BUILDING STORY 1_SCH=C 2 MAIN BRANCH,FAN:VARIABLEVOLUME,FAN VARIABLE VOLUME 1,NODE 71,NODE 27,Air Nodes
 Component Set,13,BRANCH,MAIN SERVICE WATER LOOP SUPPLY INLET BRANCH,PUMP:CONSTANTSPEED,SERVICE WATER LOOP PUMP,NODE 37,NODE 43,Water Nodes
 Component Set,14,BRANCH,MAIN SERVICE WATER LOOP SUPPLY BRANCH 1,WATERHEATER:HEATPUMP:PUMPEDCONDENSER,13GAL ELECTRICITY WATER HEATER - 9KBTU/HR 1.0 THERM EFF ASHPWH,NODE 39,NODE 44,Water Nodes
 Component Set,15,BRANCH,MAIN SERVICE WATER LOOP SUPPLY BRANCH 2,PIPE:ADIABATIC,PIPE ADIABATIC 1,NODE 45,NODE 46,Pipe Nodes
 Component Set,16,BRANCH,MAIN SERVICE WATER LOOP SUPPLY OUTLET BRANCH,PIPE:ADIABATIC,PIPE ADIABATIC 3,NODE 48,NODE 38,Pipe Nodes
 Component Set,17,BRANCH,MAIN SERVICE WATER LOOP DEMAND INLET BRANCH,PIPE:ADIABATIC,PIPE ADIABATIC 4,NODE 40,NODE 49,Pipe Nodes
 Component Set,18,BRANCH,MAIN SERVICE WATER LOOP DEMAND BRANCH 1,PIPE:ADIABATIC,PIPE ADIABATIC 2,NODE 42,NODE 47,Pipe Nodes
 Component Set,19,BRANCH,MAIN SERVICE WATER LOOP DEMAND BRANCH 2,WATERUSE:CONNECTIONS,WATER USE CONNECTIONS 1,NODE 51,NODE 52,DHW Nodes
 Component Set,20,BRANCH,MAIN SERVICE WATER LOOP DEMAND BRANCH 3,WATERUSE:CONNECTIONS,WATER USE CONNECTIONS 2,NODE 53,NODE 54,DHW Nodes
 Component Set,21,BRANCH,MAIN SERVICE WATER LOOP DEMAND BRANCH 4,WATERUSE:CONNECTIONS,WATER USE CONNECTIONS 3,NODE 55,NODE 56,DHW Nodes
 Component Set,22,BRANCH,MAIN SERVICE WATER LOOP DEMAND BRANCH 5,WATERUSE:CONNECTIONS,WATER USE CONNECTIONS 4,NODE 57,NODE 58,DHW Nodes
 Component Set,23,BRANCH,MAIN SERVICE WATER LOOP DEMAND BRANCH 6,WATERUSE:CONNECTIONS,WATER USE CONNECTIONS 5,NODE 59,NODE 60,DHW Nodes
 Component Set,24,BRANCH,MAIN SERVICE WATER LOOP DEMAND BRANCH 7,WATERUSE:CONNECTIONS,WATER USE CONNECTIONS 6,NODE 61,NODE 62,DHW Nodes
 Component Set,25,BRANCH,MAIN SERVICE WATER LOOP DEMAND BRANCH 8,WATERUSE:CONNECTIONS,WATER USE CONNECTIONS 7,NODE 63,NODE 64,DHW Nodes
 Component Set,26,BRANCH,MAIN SERVICE WATER LOOP DEMAND BRANCH 9,WATERUSE:CONNECTIONS,WATER USE CONNECTIONS 8,NODE 65,NODE 66,DHW Nodes
 Component Set,27,BRANCH,MAIN SERVICE WATER LOOP DEMAND BRANCH 10,WATERUSE:CONNECTIONS,WATER USE CONNECTIONS 9,NODE 67,NODE 68,DHW Nodes
 Component Set,28,BRANCH,MAIN SERVICE WATER LOOP DEMAND BRANCH 11,WATERUSE:CONNECTIONS,WATER USE CONNECTIONS 10,NODE 69,NODE 70,DHW Nodes
 Component Set,29,BRANCH,MAIN SERVICE WATER LOOP DEMAND BYPASS BRANCH,PIPE:ADIABATIC,MAIN SERVICE WATER LOOP DEMAND BYPASS PIPE,MAIN SERVICE WATER LOOP DEMAND BYPASS PIPE INLET NODE,MAIN SERVICE WATER LOOP DEMAND BYPASS PIPE OUTLET NODE,Pipe Nodes
 Component Set,30,BRANCH,MAIN SERVICE WATER LOOP DEMAND OUTLET BRANCH,PIPE:ADIABATIC,PIPE ADIABATIC 5,NODE 50,NODE 41,Pipe Nodes
 Component Set,31,COILSYSTEM:COOLING:DX,COIL COOLING DX SINGLE SPEED 1 366KBTU/HR 8.39EER COILSYSTEM,COIL:COOLING:DX:SINGLESPEED,COIL COOLING DX SINGLE SPEED 1 366KBTU/HR 8.39EER,NODE 13,NODE 12,Air Nodes
 Component Set,32,COILSYSTEM:COOLING:DX,COIL COOLING DX SINGLE SPEED 2 101KBTU/HR 9.44EER COILSYSTEM,COIL:COOLING:DX:SINGLESPEED,COIL COOLING DX SINGLE SPEED 2 101KBTU/HR 9.44EER,NODE 24,NODE 23,Air Nodes
 Component Set,33,COILSYSTEM:COOLING:DX,COIL COOLING DX SINGLE SPEED 3 124KBTU/HR 9.44EER COILSYSTEM,COIL:COOLING:DX:SINGLESPEED,COIL COOLING DX SINGLE SPEED 3 124KBTU/HR 9.44EER,NODE 35,NODE 34,Air Nodes
 Component Set,34,WATERHEATER:HEATPUMP:PUMPEDCONDENSER,13GAL ELECTRICITY WATER HEATER - 9KBTU/HR 1.0 THERM EFF ASHPWH,COIL:WATERHEATING:AIRTOWATERHEATPUMP:PUMPED,COIL WATER HEATING AIR TO WATER HEAT PUMP 1,13GAL ELECTRICITY WATER HEATER - 9KBTU/HR 1.0 THERM EFF ASHPWH MIXER OUTLET - EVAP INLET,13GAL ELECTRICITY WATER HEATER - 9KBTU/HR 1.0 THERM EFF ASHPWH EVAP OUTLET - FAN INLET,Air Nodes
 Component Set,35,WATERHEATER:HEATPUMP:PUMPEDCONDENSER,13GAL ELECTRICITY WATER HEATER - 9KBTU/HR 1.0 THERM EFF ASHPWH,COIL:WATERHEATING:AIRTOWATERHEATPUMP:PUMPED,COIL WATER HEATING AIR TO WATER HEAT PUMP 1,13GAL ELECTRICITY WATER HEATER - 9KBTU/HR 1.0 THERM EFF ASHPWH TANK OUTLET - CONDENSER INLET,13GAL ELECTRICITY WATER HEATER - 9KBTU/HR 1.0 THERM EFF ASHPWH CONDENSER OUTLET - TANK INLET,HPWH To Coil
 Component Set,36,WATERHEATER:HEATPUMP:PUMPEDCONDENSER,13GAL ELECTRICITY WATER HEATER - 9KBTU/HR 1.0 THERM EFF ASHPWH,FAN:ONOFF,FAN ON OFF 1,13GAL ELECTRICITY WATER HEATER - 9KBTU/HR 1.0 THERM EFF ASHPWH EVAP OUTLET - FAN INLET,13GAL ELECTRICITY WATER HEATER - 9KBTU/HR 1.0 THERM EFF ASHPWH FAN OUTLET - SPLITTER INLET,Air Nodes
 Component Set,37,ZONEHVAC:ENERGYRECOVERYVENTILATOR,ALL_ST=SALES AREA_FL=BUILDING STORY 1_SCH=C ERV DOAS,FAN:ONOFF,ALL_ST=SALES AREA_FL=BUILDING STORY 1_SCH=C ERV SUP FAN,ALL_ST=SALES AREA_FL=BUILDING STORY 1_SCH=C ERV DOAS SUPPLY FAN INLET NODE,NODE 82,Air Nodes
 Component Set,38,ZONEHVAC:ENERGYRECOVERYVENTILATOR,ALL_ST=SALES AREA_FL=BUILDING STORY 1_SCH=C ERV DOAS,FAN:ONOFF,ALL_ST=SALES AREA_FL=BUILDING STORY 1_SCH=C ERV EXH FAN,ALL_ST=SALES AREA_FL=BUILDING STORY 1_SCH=C ERV DOAS EXHAUST FAN INLET NODE,ALL_ST=SALES AREA_FL=BUILDING STORY 1_SCH=C ERV DOAS EXHAUST FAN OUTLET NODE,Air Nodes
 Component Set,39,ZONEHVAC:ENERGYRECOVERYVENTILATOR,ALL_ST=SALES AREA_FL=BUILDING STORY 1_SCH=C 1 ERV DOAS,FAN:ONOFF,ALL_ST=SALES AREA_FL=BUILDING STORY 1_SCH=C 1 ERV SUP FAN,ALL_ST=SALES AREA_FL=BUILDING STORY 1_SCH=C 1 ERV DOAS SUPPLY FAN INLET NODE,NODE 80,Air Nodes
 Component Set,40,ZONEHVAC:ENERGYRECOVERYVENTILATOR,ALL_ST=SALES AREA_FL=BUILDING STORY 1_SCH=C 1 ERV DOAS,FAN:ONOFF,ALL_ST=SALES AREA_FL=BUILDING STORY 1_SCH=C 1 ERV EXH FAN,ALL_ST=SALES AREA_FL=BUILDING STORY 1_SCH=C 1 ERV DOAS EXHAUST FAN INLET NODE,ALL_ST=SALES AREA_FL=BUILDING STORY 1_SCH=C 1 ERV DOAS EXHAUST FAN OUTLET NODE,Air Nodes
 Component Set,41,ZONEHVAC:ENERGYRECOVERYVENTILATOR,ALL_ST=SALES AREA_FL=BUILDING STORY 1_SCH=C 2 ERV DOAS,FAN:ONOFF,ALL_ST=SALES AREA_FL=BUILDING STORY 1_SCH=C 2 ERV SUP FAN,ALL_ST=SALES AREA_FL=BUILDING STORY 1_SCH=C 2 ERV DOAS SUPPLY FAN INLET NODE,NODE 78,Air Nodes
 Component Set,42,ZONEHVAC:ENERGYRECOVERYVENTILATOR,ALL_ST=SALES AREA_FL=BUILDING STORY 1_SCH=C 2 ERV DOAS,FAN:ONOFF,ALL_ST=SALES AREA_FL=BUILDING STORY 1_SCH=C 2 ERV EXH FAN,ALL_ST=SALES AREA_FL=BUILDING STORY 1_SCH=C 2 ERV DOAS EXHAUST FAN INLET NODE,ALL_ST=SALES AREA_FL=BUILDING STORY 1_SCH=C 2 ERV DOAS EXHAUST FAN OUTLET NODE,Air Nodes
 Component Set,43,WATERHEATER:HEATPUMP:PUMPEDCONDENSER,13GAL ELECTRICITY WATER HEATER - 9KBTU/HR 1.0 THERM EFF ASHPWH,WATERHEATER:MIXED,13GAL ELECTRICITY WATER HEATER - 9KBTU/HR 1.0 THERM EFF,13GAL ELECTRICITY WATER HEATER - 9KBTU/HR 1.0 THERM EFF ASHPWH CONDENSER OUTLET - TANK INLET,13GAL ELECTRICITY WATER HEATER - 9KBTU/HR 1.0 THERM EFF ASHPWH TANK OUTLET - CONDENSER INLET,HPWH To Tank
 Component Set,44,ZONEHVAC:ENERGYRECOVERYVENTILATOR,ALL_ST=SALES AREA_FL=BUILDING STORY 1_SCH=C ERV DOAS,HEATEXCHANGER:AIRTOAIR:SENSIBLEANDLATENT,ALL_ST=SALES AREA_FL=BUILDING STORY 1_SCH=C ERV HX,ALL_ST=SALES AREA_FL=BUILDING STORY 1_SCH=C ERV DOAS OA NODE,ALL_ST=SALES AREA_FL=BUILDING STORY 1_SCH=C ERV DOAS SUPPLY FAN INLET NODE,Process Air Nodes
 Component Set,45,ZONEHVAC:ENERGYRECOVERYVENTILATOR,ALL_ST=SALES AREA_FL=BUILDING STORY 1_SCH=C 1 ERV DOAS,HEATEXCHANGER:AIRTOAIR:SENSIBLEANDLATENT,ALL_ST=SALES AREA_FL=BUILDING STORY 1_SCH=C 1 ERV HX,ALL_ST=SALES AREA_FL=BUILDING STORY 1_SCH=C 1 ERV DOAS OA NODE,ALL_ST=SALES AREA_FL=BUILDING STORY 1_SCH=C 1 ERV DOAS SUPPLY FAN INLET NODE,Process Air Nodes
 Component Set,46,ZONEHVAC:ENERGYRECOVERYVENTILATOR,ALL_ST=SALES AREA_FL=BUILDING STORY 1_SCH=C 2 ERV DOAS,HEATEXCHANGER:AIRTOAIR:SENSIBLEANDLATENT,ALL_ST=SALES AREA_FL=BUILDING STORY 1_SCH=C 2 ERV HX,ALL_ST=SALES AREA_FL=BUILDING STORY 1_SCH=C 2 ERV DOAS OA NODE,ALL_ST=SALES AREA_FL=BUILDING STORY 1_SCH=C 2 ERV DOAS SUPPLY FAN INLET NODE,Process Air Nodes
 Component Set,47,ZONEHVAC:AIRDISTRIBUTIONUNIT,ADU ALL_ST=SALES AREA_FL=BUILDING STORY 1_SCH=C VAV TERMINAL,AIRTERMINAL:SINGLEDUCT:VAV:HEATANDCOOL:NOREHEAT,ALL_ST=SALES AREA_FL=BUILDING STORY 1_SCH=C VAV TERMINAL,NODE 76,NODE 8,Air Nodes
 Component Set,48,ZONEHVAC:AIRDISTRIBUTIONUNIT,ADU ALL_ST=SALES AREA_FL=BUILDING STORY 1_SCH=C 1 VAV TERMINAL,AIRTERMINAL:SINGLEDUCT:VAV:HEATANDCOOL:NOREHEAT,ALL_ST=SALES AREA_FL=BUILDING STORY 1_SCH=C 1 VAV TERMINAL,NODE 74,NODE 19,Air Nodes
 Component Set,49,ZONEHVAC:AIRDISTRIBUTIONUNIT,ADU ALL_ST=SALES AREA_FL=BUILDING STORY 1_SCH=C 2 VAV TERMINAL,AIRTERMINAL:SINGLEDUCT:VAV:HEATANDCOOL:NOREHEAT,ALL_ST=SALES AREA_FL=BUILDING STORY 1_SCH=C 2 VAV TERMINAL,NODE 72,NODE 30,Air Nodes
 Component Set,50,AIRLOOPHVAC:OUTDOORAIRSYSTEM,AIR LOOP HVAC OUTDOOR AIR SYSTEM 1,OUTDOORAIR:MIXER,AIR LOOP HVAC OUTDOOR AIR SYSTEM 1 OUTDOOR AIR MIXER,NODE 9,NODE 13,Air Nodes
 Component Set,51,AIRLOOPHVAC:OUTDOORAIRSYSTEM,AIR LOOP HVAC OUTDOOR AIR SYSTEM 2,OUTDOORAIR:MIXER,AIR LOOP HVAC OUTDOOR AIR SYSTEM 2 OUTDOOR AIR MIXER,NODE 20,NODE 24,Air Nodes
 Component Set,52,AIRLOOPHVAC:OUTDOORAIRSYSTEM,AIR LOOP HVAC OUTDOOR AIR SYSTEM 3,OUTDOORAIR:MIXER,AIR LOOP HVAC OUTDOOR AIR SYSTEM 3 OUTDOOR AIR MIXER,NODE 31,NODE 35,Air Nodes
! ===============================================================
! <# Plant Loops>,<Number of Plant Loops>
 #Plant Loops,1
! <Plant Loop>,<Plant Loop Name>,<Loop Type>,<Inlet Node Name>,<Outlet Node Name>,<Branch List>,<Connector List>
! <Plant Loop Connector>,<Connector Type>,<Connector Name>,<Loop Name>,<Loop Type>,<Number of Inlets/Outlets>
! <Plant Loop Connector Branches>,<Connector Node Count>,<Connector Type>,<Connector Name>,<Inlet Branch>,<Outlet Branch>,<Loop Name>,<Loop Type>
! <Plant Loop Connector Nodes>,<Connector Node Count>,<Connector Type>,<Connector Name>,<Inlet Node>,<Outlet Node>,<Loop Name>,<Loop Type>
! <Plant Loop Supply Connection>,<Plant Loop Name>,<Supply Side Outlet Node Name>,<Demand Side Inlet Node Name>
! <Plant Loop Return Connection>,<Plant Loop Name>,<Demand Side Outlet Node Name>,<Supply Side Inlet Node Name>
 Plant Loop,MAIN SERVICE WATER LOOP,Demand,NODE 40,NODE 41,MAIN SERVICE WATER LOOP DEMAND BRANCHES,MAIN SERVICE WATER LOOP DEMAND CONNECTOR LIST
   Plant Loop Connector,Splitter,MAIN SERVICE WATER LOOP DEMAND SPLITTER,MAIN SERVICE WATER LOOP,Demand,12
     Plant Loop Connector Branches,1,Splitter,MAIN SERVICE WATER LOOP DEMAND SPLITTER,MAIN SERVICE WATER LOOP DEMAND INLET BRANCH,MAIN SERVICE WATER LOOP DEMAND BRANCH 1,MAIN SERVICE WATER LOOP,Demand
     Plant Loop Connector Nodes,   1,Splitter,MAIN SERVICE WATER LOOP DEMAND SPLITTER,NODE 49,NODE 42,MAIN SERVICE WATER LOOP,Demand
     Plant Loop Connector Branches,2,Splitter,MAIN SERVICE WATER LOOP DEMAND SPLITTER,MAIN SERVICE WATER LOOP DEMAND INLET BRANCH,MAIN SERVICE WATER LOOP DEMAND BRANCH 2,MAIN SERVICE WATER LOOP,Demand
     Plant Loop Connector Nodes,   2,Splitter,MAIN SERVICE WATER LOOP DEMAND SPLITTER,NODE 49,NODE 51,MAIN SERVICE WATER LOOP,Demand
     Plant Loop Connector Branches,3,Splitter,MAIN SERVICE WATER LOOP DEMAND SPLITTER,MAIN SERVICE WATER LOOP DEMAND INLET BRANCH,MAIN SERVICE WATER LOOP DEMAND BRANCH 3,MAIN SERVICE WATER LOOP,Demand
     Plant Loop Connector Nodes,   3,Splitter,MAIN SERVICE WATER LOOP DEMAND SPLITTER,NODE 49,NODE 53,MAIN SERVICE WATER LOOP,Demand
     Plant Loop Connector Branches,4,Splitter,MAIN SERVICE WATER LOOP DEMAND SPLITTER,MAIN SERVICE WATER LOOP DEMAND INLET BRANCH,MAIN SERVICE WATER LOOP DEMAND BRANCH 4,MAIN SERVICE WATER LOOP,Demand
     Plant Loop Connector Nodes,   4,Splitter,MAIN SERVICE WATER LOOP DEMAND SPLITTER,NODE 49,NODE 55,MAIN SERVICE WATER LOOP,Demand
     Plant Loop Connector Branches,5,Splitter,MAIN SERVICE WATER LOOP DEMAND SPLITTER,MAIN SERVICE WATER LOOP DEMAND INLET BRANCH,MAIN SERVICE WATER LOOP DEMAND BRANCH 5,MAIN SERVICE WATER LOOP,Demand
     Plant Loop Connector Nodes,   5,Splitter,MAIN SERVICE WATER LOOP DEMAND SPLITTER,NODE 49,NODE 57,MAIN SERVICE WATER LOOP,Demand
     Plant Loop Connector Branches,6,Splitter,MAIN SERVICE WATER LOOP DEMAND SPLITTER,MAIN SERVICE WATER LOOP DEMAND INLET BRANCH,MAIN SERVICE WATER LOOP DEMAND BRANCH 6,MAIN SERVICE WATER LOOP,Demand
     Plant Loop Connector Nodes,   6,Splitter,MAIN SERVICE WATER LOOP DEMAND SPLITTER,NODE 49,NODE 59,MAIN SERVICE WATER LOOP,Demand
     Plant Loop Connector Branches,7,Splitter,MAIN SERVICE WATER LOOP DEMAND SPLITTER,MAIN SERVICE WATER LOOP DEMAND INLET BRANCH,MAIN SERVICE WATER LOOP DEMAND BRANCH 7,MAIN SERVICE WATER LOOP,Demand
     Plant Loop Connector Nodes,   7,Splitter,MAIN SERVICE WATER LOOP DEMAND SPLITTER,NODE 49,NODE 61,MAIN SERVICE WATER LOOP,Demand
     Plant Loop Connector Branches,8,Splitter,MAIN SERVICE WATER LOOP DEMAND SPLITTER,MAIN SERVICE WATER LOOP DEMAND INLET BRANCH,MAIN SERVICE WATER LOOP DEMAND BRANCH 8,MAIN SERVICE WATER LOOP,Demand
     Plant Loop Connector Nodes,   8,Splitter,MAIN SERVICE WATER LOOP DEMAND SPLITTER,NODE 49,NODE 63,MAIN SERVICE WATER LOOP,Demand
     Plant Loop Connector Branches,9,Splitter,MAIN SERVICE WATER LOOP DEMAND SPLITTER,MAIN SERVICE WATER LOOP DEMAND INLET BRANCH,MAIN SERVICE WATER LOOP DEMAND BRANCH 9,MAIN SERVICE WATER LOOP,Demand
     Plant Loop Connector Nodes,   9,Splitter,MAIN SERVICE WATER LOOP DEMAND SPLITTER,NODE 49,NODE 65,MAIN SERVICE WATER LOOP,Demand
     Plant Loop Connector Branches,10,Splitter,MAIN SERVICE WATER LOOP DEMAND SPLITTER,MAIN SERVICE WATER LOOP DEMAND INLET BRANCH,MAIN SERVICE WATER LOOP DEMAND BRANCH 10,MAIN SERVICE WATER LOOP,Demand
     Plant Loop Connector Nodes,   10,Splitter,MAIN SERVICE WATER LOOP DEMAND SPLITTER,NODE 49,NODE 67,MAIN SERVICE WATER LOOP,Demand
     Plant Loop Connector Branches,11,Splitter,MAIN SERVICE WATER LOOP DEMAND SPLITTER,MAIN SERVICE WATER LOOP DEMAND INLET BRANCH,MAIN SERVICE WATER LOOP DEMAND BRANCH 11,MAIN SERVICE WATER LOOP,Demand
     Plant Loop Connector Nodes,   11,Splitter,MAIN SERVICE WATER LOOP DEMAND SPLITTER,NODE 49,NODE 69,MAIN SERVICE WATER LOOP,Demand
     Plant Loop Connector Branches,12,Splitter,MAIN SERVICE WATER LOOP DEMAND SPLITTER,MAIN SERVICE WATER LOOP DEMAND INLET BRANCH,MAIN SERVICE WATER LOOP DEMAND BYPASS BRANCH,MAIN SERVICE WATER LOOP,Demand
     Plant Loop Connector Nodes,   12,Splitter,MAIN SERVICE WATER LOOP DEMAND SPLITTER,NODE 49,MAIN SERVICE WATER LOOP DEMAND BYPASS PIPE INLET NODE,MAIN SERVICE WATER LOOP,Demand
   Plant Loop Connector,Mixer,MAIN SERVICE WATER LOOP DEMAND MIXER,MAIN SERVICE WATER LOOP,Demand,12
     Plant Loop Connector Branches,1,Mixer,MAIN SERVICE WATER LOOP DEMAND MIXER,MAIN SERVICE WATER LOOP DEMAND BRANCH 1,MAIN SERVICE WATER LOOP DEMAND OUTLET BRANCH,MAIN SERVICE WATER LOOP,Demand
     Plant Loop Connector Nodes,   1,Mixer,MAIN SERVICE WATER LOOP DEMAND MIXER,NODE 47,NODE 50,MAIN SERVICE WATER LOOP,Demand
     Plant Loop Connector Branches,2,Mixer,MAIN SERVICE WATER LOOP DEMAND MIXER,MAIN SERVICE WATER LOOP DEMAND BRANCH 2,MAIN SERVICE WATER LOOP DEMAND OUTLET BRANCH,MAIN SERVICE WATER LOOP,Demand
     Plant Loop Connector Nodes,   2,Mixer,MAIN SERVICE WATER LOOP DEMAND MIXER,NODE 52,NODE 50,MAIN SERVICE WATER LOOP,Demand
     Plant Loop Connector Branches,3,Mixer,MAIN SERVICE WATER LOOP DEMAND MIXER,MAIN SERVICE WATER LOOP DEMAND BRANCH 3,MAIN SERVICE WATER LOOP DEMAND OUTLET BRANCH,MAIN SERVICE WATER LOOP,Demand
     Plant Loop Connector Nodes,   3,Mixer,MAIN SERVICE WATER LOOP DEMAND MIXER,NODE 54,NODE 50,MAIN SERVICE WATER LOOP,Demand
     Plant Loop Connector Branches,4,Mixer,MAIN SERVICE WATER LOOP DEMAND MIXER,MAIN SERVICE WATER LOOP DEMAND BRANCH 4,MAIN SERVICE WATER LOOP DEMAND OUTLET BRANCH,MAIN SERVICE WATER LOOP,Demand
     Plant Loop Connector Nodes,   4,Mixer,MAIN SERVICE WATER LOOP DEMAND MIXER,NODE 56,NODE 50,MAIN SERVICE WATER LOOP,Demand
     Plant Loop Connector Branches,5,Mixer,MAIN SERVICE WATER LOOP DEMAND MIXER,MAIN SERVICE WATER LOOP DEMAND BRANCH 5,MAIN SERVICE WATER LOOP DEMAND OUTLET BRANCH,MAIN SERVICE WATER LOOP,Demand
     Plant Loop Connector Nodes,   5,Mixer,MAIN SERVICE WATER LOOP DEMAND MIXER,NODE 58,NODE 50,MAIN SERVICE WATER LOOP,Demand
     Plant Loop Connector Branches,6,Mixer,MAIN SERVICE WATER LOOP DEMAND MIXER,MAIN SERVICE WATER LOOP DEMAND BRANCH 6,MAIN SERVICE WATER LOOP DEMAND OUTLET BRANCH,MAIN SERVICE WATER LOOP,Demand
     Plant Loop Connector Nodes,   6,Mixer,MAIN SERVICE WATER LOOP DEMAND MIXER,NODE 60,NODE 50,MAIN SERVICE WATER LOOP,Demand
     Plant Loop Connector Branches,7,Mixer,MAIN SERVICE WATER LOOP DEMAND MIXER,MAIN SERVICE WATER LOOP DEMAND BRANCH 7,MAIN SERVICE WATER LOOP DEMAND OUTLET BRANCH,MAIN SERVICE WATER LOOP,Demand
     Plant Loop Connector Nodes,   7,Mixer,MAIN SERVICE WATER LOOP DEMAND MIXER,NODE 62,NODE 50,MAIN SERVICE WATER LOOP,Demand
     Plant Loop Connector Branches,8,Mixer,MAIN SERVICE WATER LOOP DEMAND MIXER,MAIN SERVICE WATER LOOP DEMAND BRANCH 8,MAIN SERVICE WATER LOOP DEMAND OUTLET BRANCH,MAIN SERVICE WATER LOOP,Demand
     Plant Loop Connector Nodes,   8,Mixer,MAIN SERVICE WATER LOOP DEMAND MIXER,NODE 64,NODE 50,MAIN SERVICE WATER LOOP,Demand
     Plant Loop Connector Branches,9,Mixer,MAIN SERVICE WATER LOOP DEMAND MIXER,MAIN SERVICE WATER LOOP DEMAND BRANCH 9,MAIN SERVICE WATER LOOP DEMAND OUTLET BRANCH,MAIN SERVICE WATER LOOP,Demand
     Plant Loop Connector Nodes,   9,Mixer,MAIN SERVICE WATER LOOP DEMAND MIXER,NODE 66,NODE 50,MAIN SERVICE WATER LOOP,Demand
     Plant Loop Connector Branches,10,Mixer,MAIN SERVICE WATER LOOP DEMAND MIXER,MAIN SERVICE WATER LOOP DEMAND BRANCH 10,MAIN SERVICE WATER LOOP DEMAND OUTLET BRANCH,MAIN SERVICE WATER LOOP,Demand
     Plant Loop Connector Nodes,   10,Mixer,MAIN SERVICE WATER LOOP DEMAND MIXER,NODE 68,NODE 50,MAIN SERVICE WATER LOOP,Demand
     Plant Loop Connector Branches,11,Mixer,MAIN SERVICE WATER LOOP DEMAND MIXER,MAIN SERVICE WATER LOOP DEMAND BRANCH 11,MAIN SERVICE WATER LOOP DEMAND OUTLET BRANCH,MAIN SERVICE WATER LOOP,Demand
     Plant Loop Connector Nodes,   11,Mixer,MAIN SERVICE WATER LOOP DEMAND MIXER,NODE 70,NODE 50,MAIN SERVICE WATER LOOP,Demand
     Plant Loop Connector Branches,12,Mixer,MAIN SERVICE WATER LOOP DEMAND MIXER,MAIN SERVICE WATER LOOP DEMAND BYPASS BRANCH,MAIN SERVICE WATER LOOP DEMAND OUTLET BRANCH,MAIN SERVICE WATER LOOP,Demand
     Plant Loop Connector Nodes,   12,Mixer,MAIN SERVICE WATER LOOP DEMAND MIXER,MAIN SERVICE WATER LOOP DEMAND BYPASS PIPE OUTLET NODE,NODE 50,MAIN SERVICE WATER LOOP,Demand
 Plant Loop,MAIN SERVICE WATER LOOP,Supply,NODE 37,NODE 38,MAIN SERVICE WATER LOOP SUPPLY BRANCHES,MAIN SERVICE WATER LOOP SUPPLY CONNECTOR LIST
   Plant Loop Connector,Splitter,MAIN SERVICE WATER LOOP SUPPLY SPLITTER,MAIN SERVICE WATER LOOP,Supply,2
     Plant Loop Connector Branches,1,Splitter,MAIN SERVICE WATER LOOP SUPPLY SPLITTER,MAIN SERVICE WATER LOOP SUPPLY INLET BRANCH,MAIN SERVICE WATER LOOP SUPPLY BRANCH 1,MAIN SERVICE WATER LOOP,Supply
     Plant Loop Connector Nodes,   1,Splitter,MAIN SERVICE WATER LOOP SUPPLY SPLITTER,NODE 43,NODE 39,MAIN SERVICE WATER LOOP,Supply
     Plant Loop Connector Branches,2,Splitter,MAIN SERVICE WATER LOOP SUPPLY SPLITTER,MAIN SERVICE WATER LOOP SUPPLY INLET BRANCH,MAIN SERVICE WATER LOOP SUPPLY BRANCH 2,MAIN SERVICE WATER LOOP,Supply
     Plant Loop Connector Nodes,   2,Splitter,MAIN SERVICE WATER LOOP SUPPLY SPLITTER,NODE 43,NODE 45,MAIN SERVICE WATER LOOP,Supply
   Plant Loop Connector,Mixer,MAIN SERVICE WATER LOOP SUPPLY MIXER,MAIN SERVICE WATER LOOP,Supply,2
     Plant Loop Connector Branches,1,Mixer,MAIN SERVICE WATER LOOP SUPPLY MIXER,MAIN SERVICE WATER LOOP SUPPLY BRANCH 1,MAIN SERVICE WATER LOOP SUPPLY OUTLET BRANCH,MAIN SERVICE WATER LOOP,Supply
     Plant Loop Connector Nodes,   1,Mixer,MAIN SERVICE WATER LOOP SUPPLY MIXER,NODE 44,NODE 48,MAIN SERVICE WATER LOOP,Supply
     Plant Loop Connector Branches,2,Mixer,MAIN SERVICE WATER LOOP SUPPLY MIXER,MAIN SERVICE WATER LOOP SUPPLY BRANCH 2,MAIN SERVICE WATER LOOP SUPPLY OUTLET BRANCH,MAIN SERVICE WATER LOOP,Supply
     Plant Loop Connector Nodes,   2,Mixer,MAIN SERVICE WATER LOOP SUPPLY MIXER,NODE 46,NODE 48,MAIN SERVICE WATER LOOP,Supply
 Plant Loop Supply Connection,MAIN SERVICE WATER LOOP,NODE 38,NODE 40
 Plant Loop Return Connection,MAIN SERVICE WATER LOOP,NODE 41,NODE 37
! ===============================================================
! <# Condenser Loops>,<Number of Condenser Loops>
 #Condenser Loops,0
! <Condenser Loop>,<Condenser Loop Name>,<Loop Type>,<Inlet Node Name>,<Outlet Node Name>,<Branch List>,<Connector List>
! <Condenser Loop Connector>,<Connector Type>,<Connector Name>,<Loop Name>,<Loop Type>,<Number of Inlets/Outlets>
! <Condenser Loop Connector Branches>,<Connector Node Count>,<Connector Type>,<Connector Name>,<Inlet Branch>,<Outlet Branch>,<Loop Name>,<Loop Type>
! <Condenser Loop Connector Nodes>,<Connector Node Count>,<Connector Type>,<Connector Name>,<Inlet Node>,<Outlet Node>,<Loop Name>,<Loop Type>
! <Condenser Loop Supply Connection>,<Condenser Loop Name>,<Supply Side Outlet Node Name>,<Demand Side Inlet Node Name>
! <Condenser Loop Return Connection>,<Condenser Loop Name>,<Demand Side Outlet Node Name>,<Supply Side Inlet Node Name>
! ===============================================================
! <# Controlled Zones>,<Number of Controlled Zones>
 #Controlled Zones,3
! <Controlled Zone>,<Controlled Zone Name>,<Equip List Name>,<Control List Name>,<Zone Node Name>,<# Inlet Nodes>,<# Exhaust Nodes>,<# Return Nodes>
! <Controlled Zone Inlet>,<Inlet Node Count>,<Controlled Zone Name>,<Supply Air Inlet Node Name>,<SD Sys:Cooling/Heating [DD:Cooling] Inlet Node Name>,<DD Sys:Heating Inlet Node Name>
! <Controlled Zone Exhaust>,<Exhaust Node Count>,<Controlled Zone Name>,<Exhaust Air Node Name>
 Controlled Zone,ALL_ST=SALES AREA_FL=BUILDING STORY 1_SCH=C,ALL_ST=SALES AREA_FL=BUILDING STORY 1_SCH=C EQUIPMENT LIST,,NODE 1,3,2,1
   Controlled Zone Inlet,1,ALL_ST=SALES AREA_FL=BUILDING STORY 1_SCH=C,NODE 8,NODE 76,N/A
   Controlled Zone Inlet,2,ALL_ST=SALES AREA_FL=BUILDING STORY 1_SCH=C,NODE 82,Undefined,N/A
   Controlled Zone Inlet,3,ALL_ST=SALES AREA_FL=BUILDING STORY 1_SCH=C,NODE 84,Undefined,N/A
   Controlled Zone Exhaust,1,ALL_ST=SALES AREA_FL=BUILDING STORY 1_SCH=C,NODE 81
   Controlled Zone Exhaust,2,ALL_ST=SALES AREA_FL=BUILDING STORY 1_SCH=C,NODE 83
   Controlled Zone Return,1,ALL_ST=SALES AREA_FL=BUILDING STORY 1_SCH=C,NODE 14
 Controlled Zone,ALL_ST=SALES AREA_FL=BUILDING STORY 1_SCH=C 1,ALL_ST=SALES AREA_FL=BUILDING STORY 1_SCH=C 1 EQUIPMENT LIST,,NODE 4,2,1,1
   Controlled Zone Inlet,1,ALL_ST=SALES AREA_FL=BUILDING STORY 1_SCH=C 1,NODE 19,NODE 74,N/A
   Controlled Zone Inlet,2,ALL_ST=SALES AREA_FL=BUILDING STORY 1_SCH=C 1,NODE 80,Undefined,N/A
   Controlled Zone Exhaust,1,ALL_ST=SALES AREA_FL=BUILDING STORY 1_SCH=C 1,NODE 79
   Controlled Zone Return,1,ALL_ST=SALES AREA_FL=BUILDING STORY 1_SCH=C 1,NODE 25
 Controlled Zone,ALL_ST=SALES AREA_FL=BUILDING STORY 1_SCH=C 2,ALL_ST=SALES AREA_FL=BUILDING STORY 1_SCH=C 2 EQUIPMENT LIST,,NODE 7,2,1,1
   Controlled Zone Inlet,1,ALL_ST=SALES AREA_FL=BUILDING STORY 1_SCH=C 2,NODE 30,NODE 72,N/A
   Controlled Zone Inlet,2,ALL_ST=SALES AREA_FL=BUILDING STORY 1_SCH=C 2,NODE 78,Undefined,N/A
   Controlled Zone Exhaust,1,ALL_ST=SALES AREA_FL=BUILDING STORY 1_SCH=C 2,NODE 77
   Controlled Zone Return,1,ALL_ST=SALES AREA_FL=BUILDING STORY 1_SCH=C 2,NODE 36
! ===============================================================
! <#Zone Equipment Lists>,<Number of Zone Equipment Lists>
 #Zone Equipment Lists,3
! <Zone Equipment List>,<Zone Equipment List Count>,<Zone Equipment List Name>,<Zone Name>,<Number of Components>
! <Zone Equipment Component>,<Component Count>,<Component Type>,<Component Name>,<Zone Name>,<Heating Priority>,<Cooling Priority>
 Zone Equipment List,1,ALL_ST=SALES AREA_FL=BUILDING STORY 1_SCH=C EQUIPMENT LIST,ALL_ST=SALES AREA_FL=BUILDING STORY 1_SCH=C,4
   Zone Equipment Component,1,WATERHEATER:HEATPUMP:PUMPEDCONDENSER,13GAL ELECTRICITY WATER HEATER - 9KBTU/HR 1.0 THERM EFF ASHPWH,ALL_ST=SALES AREA_FL=BUILDING STORY 1_SCH=C,1,1
   Zone Equipment Component,2,ZONEHVAC:ENERGYRECOVERYVENTILATOR,ALL_ST=SALES AREA_FL=BUILDING STORY 1_SCH=C ERV DOAS,ALL_ST=SALES AREA_FL=BUILDING STORY 1_SCH=C,2,2
   Zone Equipment Component,3,ZONEHVAC:BASEBOARD:CONVECTIVE:ELECTRIC,ZONE HVAC BASEBOARD CONVECTIVE ELECTRIC 1,ALL_ST=SALES AREA_FL=BUILDING STORY 1_SCH=C,3,3
   Zone Equipment Component,4,ZONEHVAC:AIRDISTRIBUTIONUNIT,ADU ALL_ST=SALES AREA_FL=BUILDING STORY 1_SCH=C VAV TERMINAL,ALL_ST=SALES AREA_FL=BUILDING STORY 1_SCH=C,4,4
 Zone Equipment List,2,ALL_ST=SALES AREA_FL=BUILDING STORY 1_SCH=C 1 EQUIPMENT LIST,ALL_ST=SALES AREA_FL=BUILDING STORY 1_SCH=C 1,3
   Zone Equipment Component,1,ZONEHVAC:ENERGYRECOVERYVENTILATOR,ALL_ST=SALES AREA_FL=BUILDING STORY 1_SCH=C 1 ERV DOAS,ALL_ST=SALES AREA_FL=BUILDING STORY 1_SCH=C 1,1,1
   Zone Equipment Component,2,ZONEHVAC:BASEBOARD:CONVECTIVE:ELECTRIC,ZONE HVAC BASEBOARD CONVECTIVE ELECTRIC 2,ALL_ST=SALES AREA_FL=BUILDING STORY 1_SCH=C 1,2,2
   Zone Equipment Component,3,ZONEHVAC:AIRDISTRIBUTIONUNIT,ADU ALL_ST=SALES AREA_FL=BUILDING STORY 1_SCH=C 1 VAV TERMINAL,ALL_ST=SALES AREA_FL=BUILDING STORY 1_SCH=C 1,3,3
 Zone Equipment List,3,ALL_ST=SALES AREA_FL=BUILDING STORY 1_SCH=C 2 EQUIPMENT LIST,ALL_ST=SALES AREA_FL=BUILDING STORY 1_SCH=C 2,3
   Zone Equipment Component,1,ZONEHVAC:ENERGYRECOVERYVENTILATOR,ALL_ST=SALES AREA_FL=BUILDING STORY 1_SCH=C 2 ERV DOAS,ALL_ST=SALES AREA_FL=BUILDING STORY 1_SCH=C 2,1,1
   Zone Equipment Component,2,ZONEHVAC:BASEBOARD:CONVECTIVE:ELECTRIC,ZONE HVAC BASEBOARD CONVECTIVE ELECTRIC 3,ALL_ST=SALES AREA_FL=BUILDING STORY 1_SCH=C 2,2,2
   Zone Equipment Component,3,ZONEHVAC:AIRDISTRIBUTIONUNIT,ADU ALL_ST=SALES AREA_FL=BUILDING STORY 1_SCH=C 2 VAV TERMINAL,ALL_ST=SALES AREA_FL=BUILDING STORY 1_SCH=C 2,3,3
! ===============================================================
! <#AirLoopHVACs>,<Number of AirLoopHVACs>
 #AirLoopHVACs,3
! <AirLoopHVAC>,<Air Loop Name>,<# Return Nodes>,<# Supply Nodes>,<# Zones Cooled>,<# Zones Heated>,<Outdoor Air Used>
! <AirLoop Return Connections>,<Connection Count>,<AirLoopHVAC Name>,<Zn Eqp Return Node #>,<Zn Eqp Return Node Name>,<AirLoop Return Node #>,<Air Loop Return Node Name>
! <AirLoop Supply Connections>,<Connection Count>,<AirLoopHVAC Name>,<Zn Eqp Supply Node #>,<Zn Eqp Supply Node Name>,<AirLoop Supply Node #>,<Air Loop Supply Node Name>
! <Cooled Zone Info>,<Cooled Zone Count>,<Cooled Zone Name>,<Cooled Zone Inlet Node #>,<Cooled Zone Inlet Node Name>,<AirLoopHVAC Name>
! <Heated Zone Info>,<Heated Zone Count>,<Heated Zone Name>,<Heated Zone Inlet Node #>,<Heated Zone Inlet Node Name>,<AirLoopHVAC Name>
! <Outdoor Air Connections>,<OA Inlet Node #>,<OA Return Air Inlet Node Name>,<OA Outlet Node #>,<OA Mixed Air Outlet Node Name>,<AirLoopHVAC Name>
! <AirLoopHVAC Connector>,<Connector Type>,<Connector Name>,<Loop Name>,<Loop Type>,<Number of Inlets/Outlets>
! <AirLoopHVAC Connector Branches>,<Connector Node Count>,<Connector Type>,<Connector Name>,<Inlet Branch>,<Outlet Branch>,<Loop Name>,<Loop Type>
! <AirLoopHVAC Connector Nodes>,<Connector Node Count>,<Connector Type>,<Connector Name>,<Inlet Node>,<Outlet Node>,<Loop Name>,<Loop Type>
 AirLoopHVAC,SYS_3_PSZ ALL_ST=SALES AREA_FL=BUILDING STORY 1_SCH=C,1,1,1,0,Yes
   AirLoop Return Connections,1,SYS_3_PSZ ALL_ST=SALES AREA_FL=BUILDING STORY 1_SCH=C,72,NODE 6,18,NODE 2
   AirLoop Supply Connections,1,SYS_3_PSZ ALL_ST=SALES AREA_FL=BUILDING STORY 1_SCH=C,13,NODE 5,12,NODE 3
   Cooled Zone Info,1,ALL_ST=SALES AREA_FL=BUILDING STORY 1_SCH=C,1,NODE 8,SYS_3_PSZ ALL_ST=SALES AREA_FL=BUILDING STORY 1_SCH=C
   Outdoor Air Connections,18,NODE 2,19,NODE 13,SYS_3_PSZ ALL_ST=SALES AREA_FL=BUILDING STORY 1_SCH=C
 AirLoopHVAC,SYS_3_PSZ ALL_ST=SALES AREA_FL=BUILDING STORY 1_SCH=C 1,1,1,1,0,Yes
   AirLoop Return Connections,1,SYS_3_PSZ ALL_ST=SALES AREA_FL=BUILDING STORY 1_SCH=C 1,73,NODE 18,22,NODE 15
   AirLoop Supply Connections,1,SYS_3_PSZ ALL_ST=SALES AREA_FL=BUILDING STORY 1_SCH=C 1,15,NODE 17,14,NODE 16
   Cooled Zone Info,1,ALL_ST=SALES AREA_FL=BUILDING STORY 1_SCH=C 1,6,NODE 19,SYS_3_PSZ ALL_ST=SALES AREA_FL=BUILDING STORY 1_SCH=C 1
   Outdoor Air Connections,22,NODE 15,23,NODE 24,SYS_3_PSZ ALL_ST=SALES AREA_FL=BUILDING STORY 1_SCH=C 1
 AirLoopHVAC,SYS_3_PSZ ALL_ST=SALES AREA_FL=BUILDING STORY 1_SCH=C 2,1,1,1,0,Yes
   AirLoop Return Connections,1,SYS_3_PSZ ALL_ST=SALES AREA_FL=BUILDING STORY 1_SCH=C 2,74,NODE 29,26,NODE 26
   AirLoop Supply Connections,1,SYS_3_PSZ ALL_ST=SALES AREA_FL=BUILDING STORY 1_SCH=C 2,17,NODE 28,16,NODE 27
   Cooled Zone Info,1,ALL_ST=SALES AREA_FL=BUILDING STORY 1_SCH=C 2,9,NODE 30,SYS_3_PSZ ALL_ST=SALES AREA_FL=BUILDING STORY 1_SCH=C 2
   Outdoor Air Connections,26,NODE 26,27,NODE 35,SYS_3_PSZ ALL_ST=SALES AREA_FL=BUILDING STORY 1_SCH=C 2
! ===============================================================
! <#Parent Node Connections>,<Number of Parent Node Connections>
 #Parent Node Connections,104
! <Parent Node Connection>,<Node Name>,<Node ObjectType>,<Node ObjectName>,<Node ConnectionType>,<Node FluidStream>
 Parent Node Connection,NODE 2,BRANCH,SYS_3_PSZ ALL_ST=SALES AREA_FL=BUILDING STORY 1_SCH=C MAIN BRANCH,Inlet,1
 Parent Node Connection,NODE 13,BRANCH,SYS_3_PSZ ALL_ST=SALES AREA_FL=BUILDING STORY 1_SCH=C MAIN BRANCH,Internal,1
 Parent Node Connection,NODE 12,BRANCH,SYS_3_PSZ ALL_ST=SALES AREA_FL=BUILDING STORY 1_SCH=C MAIN BRANCH,Internal,1
 Parent Node Connection,NODE 75,BRANCH,SYS_3_PSZ ALL_ST=SALES AREA_FL=BUILDING STORY 1_SCH=C MAIN BRANCH,Internal,1
 Parent Node Connection,NODE 3,BRANCH,SYS_3_PSZ ALL_ST=SALES AREA_FL=BUILDING STORY 1_SCH=C MAIN BRANCH,Outlet,1
 Parent Node Connection,NODE 15,BRANCH,SYS_3_PSZ ALL_ST=SALES AREA_FL=BUILDING STORY 1_SCH=C 1 MAIN BRANCH,Inlet,1
 Parent Node Connection,NODE 24,BRANCH,SYS_3_PSZ ALL_ST=SALES AREA_FL=BUILDING STORY 1_SCH=C 1 MAIN BRANCH,Internal,1
 Parent Node Connection,NODE 23,BRANCH,SYS_3_PSZ ALL_ST=SALES AREA_FL=BUILDING STORY 1_SCH=C 1 MAIN BRANCH,Internal,1
 Parent Node Connection,NODE 73,BRANCH,SYS_3_PSZ ALL_ST=SALES AREA_FL=BUILDING STORY 1_SCH=C 1 MAIN BRANCH,Internal,1
 Parent Node Connection,NODE 16,BRANCH,SYS_3_PSZ ALL_ST=SALES AREA_FL=BUILDING STORY 1_SCH=C 1 MAIN BRANCH,Outlet,1
 Parent Node Connection,NODE 26,BRANCH,SYS_3_PSZ ALL_ST=SALES AREA_FL=BUILDING STORY 1_SCH=C 2 MAIN BRANCH,Inlet,1
 Parent Node Connection,NODE 35,BRANCH,SYS_3_PSZ ALL_ST=SALES AREA_FL=BUILDING STORY 1_SCH=C 2 MAIN BRANCH,Internal,1
 Parent Node Connection,NODE 34,BRANCH,SYS_3_PSZ ALL_ST=SALES AREA_FL=BUILDING STORY 1_SCH=C 2 MAIN BRANCH,Internal,1
 Parent Node Connection,NODE 71,BRANCH,SYS_3_PSZ ALL_ST=SALES AREA_FL=BUILDING STORY 1_SCH=C 2 MAIN BRANCH,Internal,1
 Parent Node Connection,NODE 27,BRANCH,SYS_3_PSZ ALL_ST=SALES AREA_FL=BUILDING STORY 1_SCH=C 2 MAIN BRANCH,Outlet,1
 Parent Node Connection,NODE 37,BRANCH,MAIN SERVICE WATER LOOP SUPPLY INLET BRANCH,Inlet,1
 Parent Node Connection,NODE 43,BRANCH,MAIN SERVICE WATER LOOP SUPPLY INLET BRANCH,Outlet,1
 Parent Node Connection,NODE 39,BRANCH,MAIN SERVICE WATER LOOP SUPPLY BRANCH 1,Inlet,1
 Parent Node Connection,NODE 44,BRANCH,MAIN SERVICE WATER LOOP SUPPLY BRANCH 1,Outlet,1
 Parent Node Connection,NODE 45,BRANCH,MAIN SERVICE WATER LOOP SUPPLY BRANCH 2,Inlet,1
 Parent Node Connection,NODE 46,BRANCH,MAIN SERVICE WATER LOOP SUPPLY BRANCH 2,Outlet,1
 Parent Node Connection,NODE 48,BRANCH,MAIN SERVICE WATER LOOP SUPPLY OUTLET BRANCH,Inlet,1
 Parent Node Connection,NODE 38,BRANCH,MAIN SERVICE WATER LOOP SUPPLY OUTLET BRANCH,Outlet,1
 Parent Node Connection,NODE 40,BRANCH,MAIN SERVICE WATER LOOP DEMAND INLET BRANCH,Inlet,1
 Parent Node Connection,NODE 49,BRANCH,MAIN SERVICE WATER LOOP DEMAND INLET BRANCH,Outlet,1
 Parent Node Connection,NODE 42,BRANCH,MAIN SERVICE WATER LOOP DEMAND BRANCH 1,Inlet,1
 Parent Node Connection,NODE 47,BRANCH,MAIN SERVICE WATER LOOP DEMAND BRANCH 1,Outlet,1
 Parent Node Connection,NODE 51,BRANCH,MAIN SERVICE WATER LOOP DEMAND BRANCH 2,Inlet,1
 Parent Node Connection,NODE 52,BRANCH,MAIN SERVICE WATER LOOP DEMAND BRANCH 2,Outlet,1
 Parent Node Connection,NODE 53,BRANCH,MAIN SERVICE WATER LOOP DEMAND BRANCH 3,Inlet,1
 Parent Node Connection,NODE 54,BRANCH,MAIN SERVICE WATER LOOP DEMAND BRANCH 3,Outlet,1
 Parent Node Connection,NODE 55,BRANCH,MAIN SERVICE WATER LOOP DEMAND BRANCH 4,Inlet,1
 Parent Node Connection,NODE 56,BRANCH,MAIN SERVICE WATER LOOP DEMAND BRANCH 4,Outlet,1
 Parent Node Connection,NODE 57,BRANCH,MAIN SERVICE WATER LOOP DEMAND BRANCH 5,Inlet,1
 Parent Node Connection,NODE 58,BRANCH,MAIN SERVICE WATER LOOP DEMAND BRANCH 5,Outlet,1
 Parent Node Connection,NODE 59,BRANCH,MAIN SERVICE WATER LOOP DEMAND BRANCH 6,Inlet,1
 Parent Node Connection,NODE 60,BRANCH,MAIN SERVICE WATER LOOP DEMAND BRANCH 6,Outlet,1
 Parent Node Connection,NODE 61,BRANCH,MAIN SERVICE WATER LOOP DEMAND BRANCH 7,Inlet,1
 Parent Node Connection,NODE 62,BRANCH,MAIN SERVICE WATER LOOP DEMAND BRANCH 7,Outlet,1
 Parent Node Connection,NODE 63,BRANCH,MAIN SERVICE WATER LOOP DEMAND BRANCH 8,Inlet,1
 Parent Node Connection,NODE 64,BRANCH,MAIN SERVICE WATER LOOP DEMAND BRANCH 8,Outlet,1
 Parent Node Connection,NODE 65,BRANCH,MAIN SERVICE WATER LOOP DEMAND BRANCH 9,Inlet,1
 Parent Node Connection,NODE 66,BRANCH,MAIN SERVICE WATER LOOP DEMAND BRANCH 9,Outlet,1
 Parent Node Connection,NODE 67,BRANCH,MAIN SERVICE WATER LOOP DEMAND BRANCH 10,Inlet,1
 Parent Node Connection,NODE 68,BRANCH,MAIN SERVICE WATER LOOP DEMAND BRANCH 10,Outlet,1
 Parent Node Connection,NODE 69,BRANCH,MAIN SERVICE WATER LOOP DEMAND BRANCH 11,Inlet,1
 Parent Node Connection,NODE 70,BRANCH,MAIN SERVICE WATER LOOP DEMAND BRANCH 11,Outlet,1
 Parent Node Connection,MAIN SERVICE WATER LOOP DEMAND BYPASS PIPE INLET NODE,BRANCH,MAIN SERVICE WATER LOOP DEMAND BYPASS BRANCH,Inlet,1
 Parent Node Connection,MAIN SERVICE WATER LOOP DEMAND BYPASS PIPE OUTLET NODE,BRANCH,MAIN SERVICE WATER LOOP DEMAND BYPASS BRANCH,Outlet,1
 Parent Node Connection,NODE 50,BRANCH,MAIN SERVICE WATER LOOP DEMAND OUTLET BRANCH,Inlet,1
 Parent Node Connection,NODE 41,BRANCH,MAIN SERVICE WATER LOOP DEMAND OUTLET BRANCH,Outlet,1
 Parent Node Connection,NODE 5,AIRLOOPHVAC:SUPPLYPATH,SYS_3_PSZ ALL_ST=SALES AREA_FL=BUILDING STORY 1_SCH=C NODE 5 SUPPLY PATH,Inlet,1
 Parent Node Connection,NODE 17,AIRLOOPHVAC:SUPPLYPATH,SYS_3_PSZ ALL_ST=SALES AREA_FL=BUILDING STORY 1_SCH=C 1 NODE 17 SUPPLY PATH,Inlet,1
 Parent Node Connection,NODE 28,AIRLOOPHVAC:SUPPLYPATH,SYS_3_PSZ ALL_ST=SALES AREA_FL=BUILDING STORY 1_SCH=C 2 NODE 28 SUPPLY PATH,Inlet,1
 Parent Node Connection,NODE 6,AIRLOOPHVAC:RETURNPATH,SYS_3_PSZ ALL_ST=SALES AREA_FL=BUILDING STORY 1_SCH=C RETURN PATH,Outlet,1
 Parent Node Connection,NODE 18,AIRLOOPHVAC:RETURNPATH,SYS_3_PSZ ALL_ST=SALES AREA_FL=BUILDING STORY 1_SCH=C 1 RETURN PATH,Outlet,1
 Parent Node Connection,NODE 29,AIRLOOPHVAC:RETURNPATH,SYS_3_PSZ ALL_ST=SALES AREA_FL=BUILDING STORY 1_SCH=C 2 RETURN PATH,Outlet,1
 Parent Node Connection,13GAL ELECTRICITY WATER HEATER - 9KBTU/HR 1.0 THERM EFF ASHPWH TANK OUTLET - CONDENSER INLET,WATERHEATER:HEATPUMP:PUMPEDCONDENSER,13GAL ELECTRICITY WATER HEATER - 9KBTU/HR 1.0 THERM EFF ASHPWH,Inlet,2
 Parent Node Connection,13GAL ELECTRICITY WATER HEATER - 9KBTU/HR 1.0 THERM EFF ASHPWH CONDENSER OUTLET - TANK INLET,WATERHEATER:HEATPUMP:PUMPEDCONDENSER,13GAL ELECTRICITY WATER HEATER - 9KBTU/HR 1.0 THERM EFF ASHPWH,Outlet,2
 Parent Node Connection,NODE 39,WATERHEATER:HEATPUMP:PUMPEDCONDENSER,13GAL ELECTRICITY WATER HEATER - 9KBTU/HR 1.0 THERM EFF ASHPWH,Inlet,1
 Parent Node Connection,NODE 44,WATERHEATER:HEATPUMP:PUMPEDCONDENSER,13GAL ELECTRICITY WATER HEATER - 9KBTU/HR 1.0 THERM EFF ASHPWH,Outlet,1
 Parent Node Connection,13GAL ELECTRICITY WATER HEATER - 9KBTU/HR 1.0 THERM EFF ASHPWH OUTDOOR AIR,WATERHEATER:HEATPUMP:PUMPEDCONDENSER,13GAL ELECTRICITY WATER HEATER - 9KBTU/HR 1.0 THERM EFF ASHPWH,OutsideAirReference,1
 Parent Node Connection,13GAL ELECTRICITY WATER HEATER - 9KBTU/HR 1.0 THERM EFF ASHPWH EXHAUST AIR,WATERHEATER:HEATPUMP:PUMPEDCONDENSER,13GAL ELECTRICITY WATER HEATER - 9KBTU/HR 1.0 THERM EFF ASHPWH,ReliefAir,1
 Parent Node Connection,NODE 37,PLANTLOOP,MAIN SERVICE WATER LOOP,Inlet,1
 Parent Node Connection,NODE 38,PLANTLOOP,MAIN SERVICE WATER LOOP,Outlet,1
 Parent Node Connection,NODE 40,PLANTLOOP,MAIN SERVICE WATER LOOP,Inlet,1
 Parent Node Connection,NODE 41,PLANTLOOP,MAIN SERVICE WATER LOOP,Outlet,1
 Parent Node Connection,NODE 38,PLANTLOOP,MAIN SERVICE WATER LOOP,Sensor,1
 Parent Node Connection,ALL_ST=SALES AREA_FL=BUILDING STORY 1_SCH=C ERV DOAS OA NODE,ZONEHVAC:ENERGYRECOVERYVENTILATOR,ALL_ST=SALES AREA_FL=BUILDING STORY 1_SCH=C ERV DOAS,Inlet,1
 Parent Node Connection,NODE 82,ZONEHVAC:ENERGYRECOVERYVENTILATOR,ALL_ST=SALES AREA_FL=BUILDING STORY 1_SCH=C ERV DOAS,Outlet,1
 Parent Node Connection,NODE 81,ZONEHVAC:ENERGYRECOVERYVENTILATOR,ALL_ST=SALES AREA_FL=BUILDING STORY 1_SCH=C ERV DOAS,Inlet,2
 Parent Node Connection,ALL_ST=SALES AREA_FL=BUILDING STORY 1_SCH=C ERV DOAS EXHAUST FAN OUTLET NODE,ZONEHVAC:ENERGYRECOVERYVENTILATOR,ALL_ST=SALES AREA_FL=BUILDING STORY 1_SCH=C ERV DOAS,ReliefAir,2
 Parent Node Connection,ALL_ST=SALES AREA_FL=BUILDING STORY 1_SCH=C 1 ERV DOAS OA NODE,ZONEHVAC:ENERGYRECOVERYVENTILATOR,ALL_ST=SALES AREA_FL=BUILDING STORY 1_SCH=C 1 ERV DOAS,Inlet,1
 Parent Node Connection,NODE 80,ZONEHVAC:ENERGYRECOVERYVENTILATOR,ALL_ST=SALES AREA_FL=BUILDING STORY 1_SCH=C 1 ERV DOAS,Outlet,1
 Parent Node Connection,NODE 79,ZONEHVAC:ENERGYRECOVERYVENTILATOR,ALL_ST=SALES AREA_FL=BUILDING STORY 1_SCH=C 1 ERV DOAS,Inlet,2
 Parent Node Connection,ALL_ST=SALES AREA_FL=BUILDING STORY 1_SCH=C 1 ERV DOAS EXHAUST FAN OUTLET NODE,ZONEHVAC:ENERGYRECOVERYVENTILATOR,ALL_ST=SALES AREA_FL=BUILDING STORY 1_SCH=C 1 ERV DOAS,ReliefAir,2
 Parent Node Connection,ALL_ST=SALES AREA_FL=BUILDING STORY 1_SCH=C 2 ERV DOAS OA NODE,ZONEHVAC:ENERGYRECOVERYVENTILATOR,ALL_ST=SALES AREA_FL=BUILDING STORY 1_SCH=C 2 ERV DOAS,Inlet,1
 Parent Node Connection,NODE 78,ZONEHVAC:ENERGYRECOVERYVENTILATOR,ALL_ST=SALES AREA_FL=BUILDING STORY 1_SCH=C 2 ERV DOAS,Outlet,1
 Parent Node Connection,NODE 77,ZONEHVAC:ENERGYRECOVERYVENTILATOR,ALL_ST=SALES AREA_FL=BUILDING STORY 1_SCH=C 2 ERV DOAS,Inlet,2
 Parent Node Connection,ALL_ST=SALES AREA_FL=BUILDING STORY 1_SCH=C 2 ERV DOAS EXHAUST FAN OUTLET NODE,ZONEHVAC:ENERGYRECOVERYVENTILATOR,ALL_ST=SALES AREA_FL=BUILDING STORY 1_SCH=C 2 ERV DOAS,ReliefAir,2
 Parent Node Connection,NODE 8,ZONEHVAC:AIRDISTRIBUTIONUNIT,ADU ALL_ST=SALES AREA_FL=BUILDING STORY 1_SCH=C VAV TERMINAL,Outlet,1
 Parent Node Connection,NODE 19,ZONEHVAC:AIRDISTRIBUTIONUNIT,ADU ALL_ST=SALES AREA_FL=BUILDING STORY 1_SCH=C 1 VAV TERMINAL,Outlet,1
 Parent Node Connection,NODE 30,ZONEHVAC:AIRDISTRIBUTIONUNIT,ADU ALL_ST=SALES AREA_FL=BUILDING STORY 1_SCH=C 2 VAV TERMINAL,Outlet,1
 Parent Node Connection,NODE 2,AIRLOOPHVAC,SYS_3_PSZ ALL_ST=SALES AREA_FL=BUILDING STORY 1_SCH=C,Inlet,1
 Parent Node Connection,NODE 6,AIRLOOPHVAC,SYS_3_PSZ ALL_ST=SALES AREA_FL=BUILDING STORY 1_SCH=C,Outlet,1
 Parent Node Connection,NODE 5,AIRLOOPHVAC,SYS_3_PSZ ALL_ST=SALES AREA_FL=BUILDING STORY 1_SCH=C,Inlet,1
 Parent Node Connection,NODE 3,AIRLOOPHVAC,SYS_3_PSZ ALL_ST=SALES AREA_FL=BUILDING STORY 1_SCH=C,Outlet,1
 Parent Node Connection,NODE 15,AIRLOOPHVAC,SYS_3_PSZ ALL_ST=SALES AREA_FL=BUILDING STORY 1_SCH=C 1,Inlet,1
 Parent Node Connection,NODE 18,AIRLOOPHVAC,SYS_3_PSZ ALL_ST=SALES AREA_FL=BUILDING STORY 1_SCH=C 1,Outlet,1
 Parent Node Connection,NODE 17,AIRLOOPHVAC,SYS_3_PSZ ALL_ST=SALES AREA_FL=BUILDING STORY 1_SCH=C 1,Inlet,1
 Parent Node Connection,NODE 16,AIRLOOPHVAC,SYS_3_PSZ ALL_ST=SALES AREA_FL=BUILDING STORY 1_SCH=C 1,Outlet,1
 Parent Node Connection,NODE 26,AIRLOOPHVAC,SYS_3_PSZ ALL_ST=SALES AREA_FL=BUILDING STORY 1_SCH=C 2,Inlet,1
 Parent Node Connection,NODE 29,AIRLOOPHVAC,SYS_3_PSZ ALL_ST=SALES AREA_FL=BUILDING STORY 1_SCH=C 2,Outlet,1
 Parent Node Connection,NODE 28,AIRLOOPHVAC,SYS_3_PSZ ALL_ST=SALES AREA_FL=BUILDING STORY 1_SCH=C 2,Inlet,1
 Parent Node Connection,NODE 27,AIRLOOPHVAC,SYS_3_PSZ ALL_ST=SALES AREA_FL=BUILDING STORY 1_SCH=C 2,Outlet,1
 Parent Node Connection,NODE 13,COILSYSTEM:COOLING:DX,COIL COOLING DX SINGLE SPEED 1 366KBTU/HR 8.39EER COILSYSTEM,Inlet,1
 Parent Node Connection,NODE 12,COILSYSTEM:COOLING:DX,COIL COOLING DX SINGLE SPEED 1 366KBTU/HR 8.39EER COILSYSTEM,Outlet,1
 Parent Node Connection,NODE 12,COILSYSTEM:COOLING:DX,COIL COOLING DX SINGLE SPEED 1 366KBTU/HR 8.39EER COILSYSTEM,Sensor,1
 Parent Node Connection,NODE 24,COILSYSTEM:COOLING:DX,COIL COOLING DX SINGLE SPEED 2 101KBTU/HR 9.44EER COILSYSTEM,Inlet,1
 Parent Node Connection,NODE 23,COILSYSTEM:COOLING:DX,COIL COOLING DX SINGLE SPEED 2 101KBTU/HR 9.44EER COILSYSTEM,Outlet,1
 Parent Node Connection,NODE 23,COILSYSTEM:COOLING:DX,COIL COOLING DX SINGLE SPEED 2 101KBTU/HR 9.44EER COILSYSTEM,Sensor,1
 Parent Node Connection,NODE 35,COILSYSTEM:COOLING:DX,COIL COOLING DX SINGLE SPEED 3 124KBTU/HR 9.44EER COILSYSTEM,Inlet,1
 Parent Node Connection,NODE 34,COILSYSTEM:COOLING:DX,COIL COOLING DX SINGLE SPEED 3 124KBTU/HR 9.44EER COILSYSTEM,Outlet,1
 Parent Node Connection,NODE 34,COILSYSTEM:COOLING:DX,COIL COOLING DX SINGLE SPEED 3 124KBTU/HR 9.44EER COILSYSTEM,Sensor,1
! ===============================================================
! <#Non-Parent Node Connections>,<Number of Non-Parent Node Connections>
 #Non-Parent Node Connections,223
! <Non-Parent Node Connection>,<Node Name>,<Node ObjectType>,<Node ObjectName>,<Node ConnectionType>,<Node FluidStream>
 Non-Parent Node Connection,NODE 1,ZONEHVAC:EQUIPMENTCONNECTIONS,ALL_ST=SALES AREA_FL=BUILDING STORY 1_SCH=C,ZoneNode,1
 Non-Parent Node Connection,NODE 8,ZONEHVAC:EQUIPMENTCONNECTIONS,ALL_ST=SALES AREA_FL=BUILDING STORY 1_SCH=C,ZoneInlet,1
 Non-Parent Node Connection,NODE 82,ZONEHVAC:EQUIPMENTCONNECTIONS,ALL_ST=SALES AREA_FL=BUILDING STORY 1_SCH=C,ZoneInlet,1
 Non-Parent Node Connection,NODE 84,ZONEHVAC:EQUIPMENTCONNECTIONS,ALL_ST=SALES AREA_FL=BUILDING STORY 1_SCH=C,ZoneInlet,1
 Non-Parent Node Connection,NODE 81,ZONEHVAC:EQUIPMENTCONNECTIONS,ALL_ST=SALES AREA_FL=BUILDING STORY 1_SCH=C,ZoneExhaust,1
 Non-Parent Node Connection,NODE 83,ZONEHVAC:EQUIPMENTCONNECTIONS,ALL_ST=SALES AREA_FL=BUILDING STORY 1_SCH=C,ZoneExhaust,1
 Non-Parent Node Connection,NODE 14,ZONEHVAC:EQUIPMENTCONNECTIONS,ALL_ST=SALES AREA_FL=BUILDING STORY 1_SCH=C,ZoneReturn,1
 Non-Parent Node Connection,NODE 4,ZONEHVAC:EQUIPMENTCONNECTIONS,ALL_ST=SALES AREA_FL=BUILDING STORY 1_SCH=C 1,ZoneNode,1
 Non-Parent Node Connection,NODE 19,ZONEHVAC:EQUIPMENTCONNECTIONS,ALL_ST=SALES AREA_FL=BUILDING STORY 1_SCH=C 1,ZoneInlet,1
 Non-Parent Node Connection,NODE 80,ZONEHVAC:EQUIPMENTCONNECTIONS,ALL_ST=SALES AREA_FL=BUILDING STORY 1_SCH=C 1,ZoneInlet,1
 Non-Parent Node Connection,NODE 79,ZONEHVAC:EQUIPMENTCONNECTIONS,ALL_ST=SALES AREA_FL=BUILDING STORY 1_SCH=C 1,ZoneExhaust,1
 Non-Parent Node Connection,NODE 25,ZONEHVAC:EQUIPMENTCONNECTIONS,ALL_ST=SALES AREA_FL=BUILDING STORY 1_SCH=C 1,ZoneReturn,1
 Non-Parent Node Connection,NODE 7,ZONEHVAC:EQUIPMENTCONNECTIONS,ALL_ST=SALES AREA_FL=BUILDING STORY 1_SCH=C 2,ZoneNode,1
 Non-Parent Node Connection,NODE 30,ZONEHVAC:EQUIPMENTCONNECTIONS,ALL_ST=SALES AREA_FL=BUILDING STORY 1_SCH=C 2,ZoneInlet,1
 Non-Parent Node Connection,NODE 78,ZONEHVAC:EQUIPMENTCONNECTIONS,ALL_ST=SALES AREA_FL=BUILDING STORY 1_SCH=C 2,ZoneInlet,1
 Non-Parent Node Connection,NODE 77,ZONEHVAC:EQUIPMENTCONNECTIONS,ALL_ST=SALES AREA_FL=BUILDING STORY 1_SCH=C 2,ZoneExhaust,1
 Non-Parent Node Connection,NODE 36,ZONEHVAC:EQUIPMENTCONNECTIONS,ALL_ST=SALES AREA_FL=BUILDING STORY 1_SCH=C 2,ZoneReturn,1
 Non-Parent Node Connection,NODE 13,COIL:COOLING:DX:SINGLESPEED,COIL COOLING DX SINGLE SPEED 1 366KBTU/HR 8.39EER,Inlet,1
 Non-Parent Node Connection,NODE 12,COIL:COOLING:DX:SINGLESPEED,COIL COOLING DX SINGLE SPEED 1 366KBTU/HR 8.39EER,Outlet,1
 Non-Parent Node Connection,NODE 24,COIL:COOLING:DX:SINGLESPEED,COIL COOLING DX SINGLE SPEED 2 101KBTU/HR 9.44EER,Inlet,1
 Non-Parent Node Connection,NODE 23,COIL:COOLING:DX:SINGLESPEED,COIL COOLING DX SINGLE SPEED 2 101KBTU/HR 9.44EER,Outlet,1
 Non-Parent Node Connection,NODE 35,COIL:COOLING:DX:SINGLESPEED,COIL COOLING DX SINGLE SPEED 3 124KBTU/HR 9.44EER,Inlet,1
 Non-Parent Node Connection,NODE 34,COIL:COOLING:DX:SINGLESPEED,COIL COOLING DX SINGLE SPEED 3 124KBTU/HR 9.44EER,Outlet,1
 Non-Parent Node Connection,13GAL ELECTRICITY WATER HEATER - 9KBTU/HR 1.0 THERM EFF ASHPWH MIXER OUTLET - EVAP INLET,COIL:WATERHEATING:AIRTOWATERHEATPUMP:PUMPED,COIL WATER HEATING AIR TO WATER HEAT PUMP 1,Inlet,1
 Non-Parent Node Connection,13GAL ELECTRICITY WATER HEATER - 9KBTU/HR 1.0 THERM EFF ASHPWH EVAP OUTLET - FAN INLET,COIL:WATERHEATING:AIRTOWATERHEATPUMP:PUMPED,COIL WATER HEATING AIR TO WATER HEAT PUMP 1,Outlet,1
 Non-Parent Node Connection,ALL_ST=SALES AREA_FL=BUILDING STORY 1_SCH=C ERV DOAS OA NODE,OUTDOORAIR:NODELIST,OutdoorAir:NodeList,OutdoorAir,1
 Non-Parent Node Connection,ALL_ST=SALES AREA_FL=BUILDING STORY 1_SCH=C 1 ERV DOAS OA NODE,OUTDOORAIR:NODELIST,OutdoorAir:NodeList,OutdoorAir,2
 Non-Parent Node Connection,ALL_ST=SALES AREA_FL=BUILDING STORY 1_SCH=C 2 ERV DOAS OA NODE,OUTDOORAIR:NODELIST,OutdoorAir:NodeList,OutdoorAir,3
 Non-Parent Node Connection,NODE 9,OUTDOORAIR:NODELIST,OutdoorAir:NodeList,OutdoorAir,4
 Non-Parent Node Connection,NODE 20,OUTDOORAIR:NODELIST,OutdoorAir:NodeList,OutdoorAir,5
 Non-Parent Node Connection,NODE 31,OUTDOORAIR:NODELIST,OutdoorAir:NodeList,OutdoorAir,6
 Non-Parent Node Connection,MODEL OUTDOOR AIR NODE,OUTDOORAIR:NODE,OutdoorAir:Node,OutdoorAir,7
 Non-Parent Node Connection,13GAL ELECTRICITY WATER HEATER - 9KBTU/HR 1.0 THERM EFF ASHPWH TANK OUTLET - CONDENSER INLET,COIL:WATERHEATING:AIRTOWATERHEATPUMP:PUMPED,COIL WATER HEATING AIR TO WATER HEAT PUMP 1,Inlet,2
 Non-Parent Node Connection,13GAL ELECTRICITY WATER HEATER - 9KBTU/HR 1.0 THERM EFF ASHPWH CONDENSER OUTLET - TANK INLET,COIL:WATERHEATING:AIRTOWATERHEATPUMP:PUMPED,COIL WATER HEATING AIR TO WATER HEAT PUMP 1,Outlet,2
 Non-Parent Node Connection,NODE 75,FAN:VARIABLEVOLUME,FAN VARIABLE VOLUME 3,Inlet,1
 Non-Parent Node Connection,NODE 3,FAN:VARIABLEVOLUME,FAN VARIABLE VOLUME 3,Outlet,1
 Non-Parent Node Connection,NODE 73,FAN:VARIABLEVOLUME,FAN VARIABLE VOLUME 2,Inlet,1
 Non-Parent Node Connection,NODE 16,FAN:VARIABLEVOLUME,FAN VARIABLE VOLUME 2,Outlet,1
 Non-Parent Node Connection,NODE 71,FAN:VARIABLEVOLUME,FAN VARIABLE VOLUME 1,Inlet,1
 Non-Parent Node Connection,NODE 27,FAN:VARIABLEVOLUME,FAN VARIABLE VOLUME 1,Outlet,1
 Non-Parent Node Connection,13GAL ELECTRICITY WATER HEATER - 9KBTU/HR 1.0 THERM EFF ASHPWH EVAP OUTLET - FAN INLET,FAN:ONOFF,FAN ON OFF 1,Inlet,1
 Non-Parent Node Connection,13GAL ELECTRICITY WATER HEATER - 9KBTU/HR 1.0 THERM EFF ASHPWH FAN OUTLET - SPLITTER INLET,FAN:ONOFF,FAN ON OFF 1,Outlet,1
 Non-Parent Node Connection,ALL_ST=SALES AREA_FL=BUILDING STORY 1_SCH=C ERV DOAS SUPPLY FAN INLET NODE,FAN:ONOFF,ALL_ST=SALES AREA_FL=BUILDING STORY 1_SCH=C ERV SUP FAN,Inlet,1
 Non-Parent Node Connection,NODE 82,FAN:ONOFF,ALL_ST=SALES AREA_FL=BUILDING STORY 1_SCH=C ERV SUP FAN,Outlet,1
 Non-Parent Node Connection,ALL_ST=SALES AREA_FL=BUILDING STORY 1_SCH=C ERV DOAS EXHAUST FAN INLET NODE,FAN:ONOFF,ALL_ST=SALES AREA_FL=BUILDING STORY 1_SCH=C ERV EXH FAN,Inlet,1
 Non-Parent Node Connection,ALL_ST=SALES AREA_FL=BUILDING STORY 1_SCH=C ERV DOAS EXHAUST FAN OUTLET NODE,FAN:ONOFF,ALL_ST=SALES AREA_FL=BUILDING STORY 1_SCH=C ERV EXH FAN,Outlet,1
 Non-Parent Node Connection,ALL_ST=SALES AREA_FL=BUILDING STORY 1_SCH=C 1 ERV DOAS SUPPLY FAN INLET NODE,FAN:ONOFF,ALL_ST=SALES AREA_FL=BUILDING STORY 1_SCH=C 1 ERV SUP FAN,Inlet,1
 Non-Parent Node Connection,NODE 80,FAN:ONOFF,ALL_ST=SALES AREA_FL=BUILDING STORY 1_SCH=C 1 ERV SUP FAN,Outlet,1
 Non-Parent Node Connection,ALL_ST=SALES AREA_FL=BUILDING STORY 1_SCH=C 1 ERV DOAS EXHAUST FAN INLET NODE,FAN:ONOFF,ALL_ST=SALES AREA_FL=BUILDING STORY 1_SCH=C 1 ERV EXH FAN,Inlet,1
 Non-Parent Node Connection,ALL_ST=SALES AREA_FL=BUILDING STORY 1_SCH=C 1 ERV DOAS EXHAUST FAN OUTLET NODE,FAN:ONOFF,ALL_ST=SALES AREA_FL=BUILDING STORY 1_SCH=C 1 ERV EXH FAN,Outlet,1
 Non-Parent Node Connection,ALL_ST=SALES AREA_FL=BUILDING STORY 1_SCH=C 2 ERV DOAS SUPPLY FAN INLET NODE,FAN:ONOFF,ALL_ST=SALES AREA_FL=BUILDING STORY 1_SCH=C 2 ERV SUP FAN,Inlet,1
 Non-Parent Node Connection,NODE 78,FAN:ONOFF,ALL_ST=SALES AREA_FL=BUILDING STORY 1_SCH=C 2 ERV SUP FAN,Outlet,1
 Non-Parent Node Connection,ALL_ST=SALES AREA_FL=BUILDING STORY 1_SCH=C 2 ERV DOAS EXHAUST FAN INLET NODE,FAN:ONOFF,ALL_ST=SALES AREA_FL=BUILDING STORY 1_SCH=C 2 ERV EXH FAN,Inlet,1
 Non-Parent Node Connection,ALL_ST=SALES AREA_FL=BUILDING STORY 1_SCH=C 2 ERV DOAS EXHAUST FAN OUTLET NODE,FAN:ONOFF,ALL_ST=SALES AREA_FL=BUILDING STORY 1_SCH=C 2 ERV EXH FAN,Outlet,1
 Non-Parent Node Connection,13GAL ELECTRICITY WATER HEATER - 9KBTU/HR 1.0 THERM EFF ASHPWH MIXER OUTLET - EVAP INLET,WATERHEATER:HEATPUMP:PUMPEDCONDENSER INLET AIR MIXER,13GAL ELECTRICITY WATER HEATER - 9KBTU/HR 1.0 THERM EFF ASHPWH,Outlet,1
 Non-Parent Node Connection,13GAL ELECTRICITY WATER HEATER - 9KBTU/HR 1.0 THERM EFF ASHPWH FAN OUTLET - SPLITTER INLET,WATERHEATER:HEATPUMP:PUMPEDCONDENSER-OUTLET AIR SPLITTER,13GAL ELECTRICITY WATER HEATER - 9KBTU/HR 1.0 THERM EFF ASHPWH,Inlet,1
 Non-Parent Node Connection,NODE 83,WATERHEATER:HEATPUMP:PUMPEDCONDENSER-INLET AIR MIXER,13GAL ELECTRICITY WATER HEATER - 9KBTU/HR 1.0 THERM EFF ASHPWH,Inlet,1
 Non-Parent Node Connection,NODE 84,WATERHEATER:HEATPUMP:PUMPEDCONDENSER-OUTLET AIR SPLITTER,13GAL ELECTRICITY WATER HEATER - 9KBTU/HR 1.0 THERM EFF ASHPWH,Outlet,1
 Non-Parent Node Connection,13GAL ELECTRICITY WATER HEATER - 9KBTU/HR 1.0 THERM EFF ASHPWH OUTDOOR AIR,OUTDOORAIR:NODE,OutdoorAir:Node,OutdoorAir,8
 Non-Parent Node Connection,NODE 39,WATERHEATER:MIXED,13GAL ELECTRICITY WATER HEATER - 9KBTU/HR 1.0 THERM EFF,Inlet,1
 Non-Parent Node Connection,NODE 44,WATERHEATER:MIXED,13GAL ELECTRICITY WATER HEATER - 9KBTU/HR 1.0 THERM EFF,Outlet,1
 Non-Parent Node Connection,13GAL ELECTRICITY WATER HEATER - 9KBTU/HR 1.0 THERM EFF ASHPWH CONDENSER OUTLET - TANK INLET,WATERHEATER:MIXED,13GAL ELECTRICITY WATER HEATER - 9KBTU/HR 1.0 THERM EFF,Inlet,2
 Non-Parent Node Connection,13GAL ELECTRICITY WATER HEATER - 9KBTU/HR 1.0 THERM EFF ASHPWH TANK OUTLET - CONDENSER INLET,WATERHEATER:MIXED,13GAL ELECTRICITY WATER HEATER - 9KBTU/HR 1.0 THERM EFF,Outlet,2
 Non-Parent Node Connection,NODE 38,SETPOINTMANAGER:SCHEDULED,SERVICE HOT WATER SETPOINT MANAGER,Setpoint,1
 Non-Parent Node Connection,NODE 3,SETPOINTMANAGER:MIXEDAIR,NODE 13 OS DEFAULT SPM,Sensor,1
 Non-Parent Node Connection,NODE 75,SETPOINTMANAGER:MIXEDAIR,NODE 13 OS DEFAULT SPM,Sensor,1
 Non-Parent Node Connection,NODE 13,SETPOINTMANAGER:MIXEDAIR,NODE 13 OS DEFAULT SPM,Setpoint,1
 Non-Parent Node Connection,NODE 3,SETPOINTMANAGER:MIXEDAIR,NODE 12 OS DEFAULT SPM,Sensor,1
 Non-Parent Node Connection,NODE 75,SETPOINTMANAGER:MIXEDAIR,NODE 12 OS DEFAULT SPM,Sensor,1
 Non-Parent Node Connection,NODE 12,SETPOINTMANAGER:MIXEDAIR,NODE 12 OS DEFAULT SPM,Setpoint,1
 Non-Parent Node Connection,NODE 3,SETPOINTMANAGER:MIXEDAIR,NODE 75 OS DEFAULT SPM,Sensor,1
 Non-Parent Node Connection,NODE 75,SETPOINTMANAGER:MIXEDAIR,NODE 75 OS DEFAULT SPM,Sensor,1
 Non-Parent Node Connection,NODE 75,SETPOINTMANAGER:MIXEDAIR,NODE 75 OS DEFAULT SPM,Setpoint,1
 Non-Parent Node Connection,NODE 16,SETPOINTMANAGER:MIXEDAIR,NODE 24 OS DEFAULT SPM,Sensor,1
 Non-Parent Node Connection,NODE 73,SETPOINTMANAGER:MIXEDAIR,NODE 24 OS DEFAULT SPM,Sensor,1
 Non-Parent Node Connection,NODE 24,SETPOINTMANAGER:MIXEDAIR,NODE 24 OS DEFAULT SPM,Setpoint,1
 Non-Parent Node Connection,NODE 16,SETPOINTMANAGER:MIXEDAIR,NODE 23 OS DEFAULT SPM,Sensor,1
 Non-Parent Node Connection,NODE 73,SETPOINTMANAGER:MIXEDAIR,NODE 23 OS DEFAULT SPM,Sensor,1
 Non-Parent Node Connection,NODE 23,SETPOINTMANAGER:MIXEDAIR,NODE 23 OS DEFAULT SPM,Setpoint,1
 Non-Parent Node Connection,NODE 16,SETPOINTMANAGER:MIXEDAIR,NODE 73 OS DEFAULT SPM,Sensor,1
 Non-Parent Node Connection,NODE 73,SETPOINTMANAGER:MIXEDAIR,NODE 73 OS DEFAULT SPM,Sensor,1
 Non-Parent Node Connection,NODE 73,SETPOINTMANAGER:MIXEDAIR,NODE 73 OS DEFAULT SPM,Setpoint,1
 Non-Parent Node Connection,NODE 27,SETPOINTMANAGER:MIXEDAIR,NODE 35 OS DEFAULT SPM,Sensor,1
 Non-Parent Node Connection,NODE 71,SETPOINTMANAGER:MIXEDAIR,NODE 35 OS DEFAULT SPM,Sensor,1
 Non-Parent Node Connection,NODE 35,SETPOINTMANAGER:MIXEDAIR,NODE 35 OS DEFAULT SPM,Setpoint,1
 Non-Parent Node Connection,NODE 27,SETPOINTMANAGER:MIXEDAIR,NODE 34 OS DEFAULT SPM,Sensor,1
 Non-Parent Node Connection,NODE 71,SETPOINTMANAGER:MIXEDAIR,NODE 34 OS DEFAULT SPM,Sensor,1
 Non-Parent Node Connection,NODE 34,SETPOINTMANAGER:MIXEDAIR,NODE 34 OS DEFAULT SPM,Setpoint,1
 Non-Parent Node Connection,NODE 27,SETPOINTMANAGER:MIXEDAIR,NODE 71 OS DEFAULT SPM,Sensor,1
 Non-Parent Node Connection,NODE 71,SETPOINTMANAGER:MIXEDAIR,NODE 71 OS DEFAULT SPM,Sensor,1
 Non-Parent Node Connection,NODE 71,SETPOINTMANAGER:MIXEDAIR,NODE 71 OS DEFAULT SPM,Setpoint,1
 Non-Parent Node Connection,NODE 3,SETPOINTMANAGER:WARMEST,NODE 3 SAT STPMANAGER,Setpoint,1
 Non-Parent Node Connection,NODE 16,SETPOINTMANAGER:WARMEST,NODE 16 SAT STPMANAGER,Setpoint,1
 Non-Parent Node Connection,NODE 27,SETPOINTMANAGER:WARMEST,NODE 27 SAT STPMANAGER,Setpoint,1
 Non-Parent Node Connection,NODE 45,PIPE:ADIABATIC,PIPE ADIABATIC 1,Inlet,1
 Non-Parent Node Connection,NODE 46,PIPE:ADIABATIC,PIPE ADIABATIC 1,Outlet,1
 Non-Parent Node Connection,NODE 48,PIPE:ADIABATIC,PIPE ADIABATIC 3,Inlet,1
 Non-Parent Node Connection,NODE 38,PIPE:ADIABATIC,PIPE ADIABATIC 3,Outlet,1
 Non-Parent Node Connection,NODE 40,PIPE:ADIABATIC,PIPE ADIABATIC 4,Inlet,1
 Non-Parent Node Connection,NODE 49,PIPE:ADIABATIC,PIPE ADIABATIC 4,Outlet,1
 Non-Parent Node Connection,NODE 42,PIPE:ADIABATIC,PIPE ADIABATIC 2,Inlet,1
 Non-Parent Node Connection,NODE 47,PIPE:ADIABATIC,PIPE ADIABATIC 2,Outlet,1
 Non-Parent Node Connection,MAIN SERVICE WATER LOOP DEMAND BYPASS PIPE INLET NODE,PIPE:ADIABATIC,MAIN SERVICE WATER LOOP DEMAND BYPASS PIPE,Inlet,1
 Non-Parent Node Connection,MAIN SERVICE WATER LOOP DEMAND BYPASS PIPE OUTLET NODE,PIPE:ADIABATIC,MAIN SERVICE WATER LOOP DEMAND BYPASS PIPE,Outlet,1
 Non-Parent Node Connection,NODE 50,PIPE:ADIABATIC,PIPE ADIABATIC 5,Inlet,1
 Non-Parent Node Connection,NODE 41,PIPE:ADIABATIC,PIPE ADIABATIC 5,Outlet,1
 Non-Parent Node Connection,NODE 49,CONNECTOR:SPLITTER,MAIN SERVICE WATER LOOP DEMAND SPLITTER,Inlet,1
 Non-Parent Node Connection,NODE 42,CONNECTOR:SPLITTER,MAIN SERVICE WATER LOOP DEMAND SPLITTER,Outlet,1
 Non-Parent Node Connection,NODE 51,CONNECTOR:SPLITTER,MAIN SERVICE WATER LOOP DEMAND SPLITTER,Outlet,1
 Non-Parent Node Connection,NODE 53,CONNECTOR:SPLITTER,MAIN SERVICE WATER LOOP DEMAND SPLITTER,Outlet,1
 Non-Parent Node Connection,NODE 55,CONNECTOR:SPLITTER,MAIN SERVICE WATER LOOP DEMAND SPLITTER,Outlet,1
 Non-Parent Node Connection,NODE 57,CONNECTOR:SPLITTER,MAIN SERVICE WATER LOOP DEMAND SPLITTER,Outlet,1
 Non-Parent Node Connection,NODE 59,CONNECTOR:SPLITTER,MAIN SERVICE WATER LOOP DEMAND SPLITTER,Outlet,1
 Non-Parent Node Connection,NODE 61,CONNECTOR:SPLITTER,MAIN SERVICE WATER LOOP DEMAND SPLITTER,Outlet,1
 Non-Parent Node Connection,NODE 63,CONNECTOR:SPLITTER,MAIN SERVICE WATER LOOP DEMAND SPLITTER,Outlet,1
 Non-Parent Node Connection,NODE 65,CONNECTOR:SPLITTER,MAIN SERVICE WATER LOOP DEMAND SPLITTER,Outlet,1
 Non-Parent Node Connection,NODE 67,CONNECTOR:SPLITTER,MAIN SERVICE WATER LOOP DEMAND SPLITTER,Outlet,1
 Non-Parent Node Connection,NODE 69,CONNECTOR:SPLITTER,MAIN SERVICE WATER LOOP DEMAND SPLITTER,Outlet,1
 Non-Parent Node Connection,MAIN SERVICE WATER LOOP DEMAND BYPASS PIPE INLET NODE,CONNECTOR:SPLITTER,MAIN SERVICE WATER LOOP DEMAND SPLITTER,Outlet,1
 Non-Parent Node Connection,NODE 50,CONNECTOR:MIXER,MAIN SERVICE WATER LOOP DEMAND MIXER,Outlet,1
 Non-Parent Node Connection,NODE 47,CONNECTOR:MIXER,MAIN SERVICE WATER LOOP DEMAND MIXER,Inlet,1
 Non-Parent Node Connection,NODE 52,CONNECTOR:MIXER,MAIN SERVICE WATER LOOP DEMAND MIXER,Inlet,1
 Non-Parent Node Connection,NODE 54,CONNECTOR:MIXER,MAIN SERVICE WATER LOOP DEMAND MIXER,Inlet,1
 Non-Parent Node Connection,NODE 56,CONNECTOR:MIXER,MAIN SERVICE WATER LOOP DEMAND MIXER,Inlet,1
 Non-Parent Node Connection,NODE 58,CONNECTOR:MIXER,MAIN SERVICE WATER LOOP DEMAND MIXER,Inlet,1
 Non-Parent Node Connection,NODE 60,CONNECTOR:MIXER,MAIN SERVICE WATER LOOP DEMAND MIXER,Inlet,1
 Non-Parent Node Connection,NODE 62,CONNECTOR:MIXER,MAIN SERVICE WATER LOOP DEMAND MIXER,Inlet,1
 Non-Parent Node Connection,NODE 64,CONNECTOR:MIXER,MAIN SERVICE WATER LOOP DEMAND MIXER,Inlet,1
 Non-Parent Node Connection,NODE 66,CONNECTOR:MIXER,MAIN SERVICE WATER LOOP DEMAND MIXER,Inlet,1
 Non-Parent Node Connection,NODE 68,CONNECTOR:MIXER,MAIN SERVICE WATER LOOP DEMAND MIXER,Inlet,1
 Non-Parent Node Connection,NODE 70,CONNECTOR:MIXER,MAIN SERVICE WATER LOOP DEMAND MIXER,Inlet,1
 Non-Parent Node Connection,MAIN SERVICE WATER LOOP DEMAND BYPASS PIPE OUTLET NODE,CONNECTOR:MIXER,MAIN SERVICE WATER LOOP DEMAND MIXER,Inlet,1
 Non-Parent Node Connection,NODE 43,CONNECTOR:SPLITTER,MAIN SERVICE WATER LOOP SUPPLY SPLITTER,Inlet,1
 Non-Parent Node Connection,NODE 39,CONNECTOR:SPLITTER,MAIN SERVICE WATER LOOP SUPPLY SPLITTER,Outlet,1
 Non-Parent Node Connection,NODE 45,CONNECTOR:SPLITTER,MAIN SERVICE WATER LOOP SUPPLY SPLITTER,Outlet,1
 Non-Parent Node Connection,NODE 48,CONNECTOR:MIXER,MAIN SERVICE WATER LOOP SUPPLY MIXER,Outlet,1
 Non-Parent Node Connection,NODE 44,CONNECTOR:MIXER,MAIN SERVICE WATER LOOP SUPPLY MIXER,Inlet,1
 Non-Parent Node Connection,NODE 46,CONNECTOR:MIXER,MAIN SERVICE WATER LOOP SUPPLY MIXER,Inlet,1
 Non-Parent Node Connection,NODE 51,WATERUSE:CONNECTIONS,WATER USE CONNECTIONS 1,Inlet,1
 Non-Parent Node Connection,NODE 52,WATERUSE:CONNECTIONS,WATER USE CONNECTIONS 1,Outlet,1
 Non-Parent Node Connection,NODE 53,WATERUSE:CONNECTIONS,WATER USE CONNECTIONS 2,Inlet,1
 Non-Parent Node Connection,NODE 54,WATERUSE:CONNECTIONS,WATER USE CONNECTIONS 2,Outlet,1
 Non-Parent Node Connection,NODE 55,WATERUSE:CONNECTIONS,WATER USE CONNECTIONS 3,Inlet,1
 Non-Parent Node Connection,NODE 56,WATERUSE:CONNECTIONS,WATER USE CONNECTIONS 3,Outlet,1
 Non-Parent Node Connection,NODE 57,WATERUSE:CONNECTIONS,WATER USE CONNECTIONS 4,Inlet,1
 Non-Parent Node Connection,NODE 58,WATERUSE:CONNECTIONS,WATER USE CONNECTIONS 4,Outlet,1
 Non-Parent Node Connection,NODE 59,WATERUSE:CONNECTIONS,WATER USE CONNECTIONS 5,Inlet,1
 Non-Parent Node Connection,NODE 60,WATERUSE:CONNECTIONS,WATER USE CONNECTIONS 5,Outlet,1
 Non-Parent Node Connection,NODE 61,WATERUSE:CONNECTIONS,WATER USE CONNECTIONS 6,Inlet,1
 Non-Parent Node Connection,NODE 62,WATERUSE:CONNECTIONS,WATER USE CONNECTIONS 6,Outlet,1
 Non-Parent Node Connection,NODE 63,WATERUSE:CONNECTIONS,WATER USE CONNECTIONS 7,Inlet,1
 Non-Parent Node Connection,NODE 64,WATERUSE:CONNECTIONS,WATER USE CONNECTIONS 7,Outlet,1
 Non-Parent Node Connection,NODE 65,WATERUSE:CONNECTIONS,WATER USE CONNECTIONS 8,Inlet,1
 Non-Parent Node Connection,NODE 66,WATERUSE:CONNECTIONS,WATER USE CONNECTIONS 8,Outlet,1
 Non-Parent Node Connection,NODE 67,WATERUSE:CONNECTIONS,WATER USE CONNECTIONS 9,Inlet,1
 Non-Parent Node Connection,NODE 68,WATERUSE:CONNECTIONS,WATER USE CONNECTIONS 9,Outlet,1
 Non-Parent Node Connection,NODE 69,WATERUSE:CONNECTIONS,WATER USE CONNECTIONS 10,Inlet,1
 Non-Parent Node Connection,NODE 70,WATERUSE:CONNECTIONS,WATER USE CONNECTIONS 10,Outlet,1
 Non-Parent Node Connection,NODE 5,AIRLOOPHVAC:ZONESPLITTER,AIR LOOP HVAC ZONE SPLITTER 1,Inlet,1
 Non-Parent Node Connection,NODE 76,AIRLOOPHVAC:ZONESPLITTER,AIR LOOP HVAC ZONE SPLITTER 1,Outlet,1
 Non-Parent Node Connection,NODE 17,AIRLOOPHVAC:ZONESPLITTER,AIR LOOP HVAC ZONE SPLITTER 2,Inlet,1
 Non-Parent Node Connection,NODE 74,AIRLOOPHVAC:ZONESPLITTER,AIR LOOP HVAC ZONE SPLITTER 2,Outlet,1
 Non-Parent Node Connection,NODE 28,AIRLOOPHVAC:ZONESPLITTER,AIR LOOP HVAC ZONE SPLITTER 3,Inlet,1
 Non-Parent Node Connection,NODE 72,AIRLOOPHVAC:ZONESPLITTER,AIR LOOP HVAC ZONE SPLITTER 3,Outlet,1
 Non-Parent Node Connection,ALL_ST=SALES AREA_FL=BUILDING STORY 1_SCH=C ERV DOAS OA NODE,HEATEXCHANGER:AIRTOAIR:SENSIBLEANDLATENT,ALL_ST=SALES AREA_FL=BUILDING STORY 1_SCH=C ERV HX,Inlet,1
 Non-Parent Node Connection,ALL_ST=SALES AREA_FL=BUILDING STORY 1_SCH=C ERV DOAS SUPPLY FAN INLET NODE,HEATEXCHANGER:AIRTOAIR:SENSIBLEANDLATENT,ALL_ST=SALES AREA_FL=BUILDING STORY 1_SCH=C ERV HX,Outlet,1
 Non-Parent Node Connection,NODE 81,HEATEXCHANGER:AIRTOAIR:SENSIBLEANDLATENT,ALL_ST=SALES AREA_FL=BUILDING STORY 1_SCH=C ERV HX,Inlet,2
 Non-Parent Node Connection,ALL_ST=SALES AREA_FL=BUILDING STORY 1_SCH=C ERV DOAS EXHAUST FAN INLET NODE,HEATEXCHANGER:AIRTOAIR:SENSIBLEANDLATENT,ALL_ST=SALES AREA_FL=BUILDING STORY 1_SCH=C ERV HX,Outlet,2
 Non-Parent Node Connection,ALL_ST=SALES AREA_FL=BUILDING STORY 1_SCH=C 1 ERV DOAS OA NODE,HEATEXCHANGER:AIRTOAIR:SENSIBLEANDLATENT,ALL_ST=SALES AREA_FL=BUILDING STORY 1_SCH=C 1 ERV HX,Inlet,1
 Non-Parent Node Connection,ALL_ST=SALES AREA_FL=BUILDING STORY 1_SCH=C 1 ERV DOAS SUPPLY FAN INLET NODE,HEATEXCHANGER:AIRTOAIR:SENSIBLEANDLATENT,ALL_ST=SALES AREA_FL=BUILDING STORY 1_SCH=C 1 ERV HX,Outlet,1
 Non-Parent Node Connection,NODE 79,HEATEXCHANGER:AIRTOAIR:SENSIBLEANDLATENT,ALL_ST=SALES AREA_FL=BUILDING STORY 1_SCH=C 1 ERV HX,Inlet,2
 Non-Parent Node Connection,ALL_ST=SALES AREA_FL=BUILDING STORY 1_SCH=C 1 ERV DOAS EXHAUST FAN INLET NODE,HEATEXCHANGER:AIRTOAIR:SENSIBLEANDLATENT,ALL_ST=SALES AREA_FL=BUILDING STORY 1_SCH=C 1 ERV HX,Outlet,2
 Non-Parent Node Connection,ALL_ST=SALES AREA_FL=BUILDING STORY 1_SCH=C 2 ERV DOAS OA NODE,HEATEXCHANGER:AIRTOAIR:SENSIBLEANDLATENT,ALL_ST=SALES AREA_FL=BUILDING STORY 1_SCH=C 2 ERV HX,Inlet,1
 Non-Parent Node Connection,ALL_ST=SALES AREA_FL=BUILDING STORY 1_SCH=C 2 ERV DOAS SUPPLY FAN INLET NODE,HEATEXCHANGER:AIRTOAIR:SENSIBLEANDLATENT,ALL_ST=SALES AREA_FL=BUILDING STORY 1_SCH=C 2 ERV HX,Outlet,1
 Non-Parent Node Connection,NODE 77,HEATEXCHANGER:AIRTOAIR:SENSIBLEANDLATENT,ALL_ST=SALES AREA_FL=BUILDING STORY 1_SCH=C 2 ERV HX,Inlet,2
 Non-Parent Node Connection,ALL_ST=SALES AREA_FL=BUILDING STORY 1_SCH=C 2 ERV DOAS EXHAUST FAN INLET NODE,HEATEXCHANGER:AIRTOAIR:SENSIBLEANDLATENT,ALL_ST=SALES AREA_FL=BUILDING STORY 1_SCH=C 2 ERV HX,Outlet,2
 Non-Parent Node Connection,NODE 8,AIRTERMINAL:SINGLEDUCT:VAV:HEATANDCOOL:NOREHEAT,ALL_ST=SALES AREA_FL=BUILDING STORY 1_SCH=C VAV TERMINAL,Outlet,1
 Non-Parent Node Connection,NODE 76,AIRTERMINAL:SINGLEDUCT:VAV:HEATANDCOOL:NOREHEAT,ALL_ST=SALES AREA_FL=BUILDING STORY 1_SCH=C VAV TERMINAL,Inlet,1
 Non-Parent Node Connection,NODE 19,AIRTERMINAL:SINGLEDUCT:VAV:HEATANDCOOL:NOREHEAT,ALL_ST=SALES AREA_FL=BUILDING STORY 1_SCH=C 1 VAV TERMINAL,Outlet,1
 Non-Parent Node Connection,NODE 74,AIRTERMINAL:SINGLEDUCT:VAV:HEATANDCOOL:NOREHEAT,ALL_ST=SALES AREA_FL=BUILDING STORY 1_SCH=C 1 VAV TERMINAL,Inlet,1
 Non-Parent Node Connection,NODE 30,AIRTERMINAL:SINGLEDUCT:VAV:HEATANDCOOL:NOREHEAT,ALL_ST=SALES AREA_FL=BUILDING STORY 1_SCH=C 2 VAV TERMINAL,Outlet,1
 Non-Parent Node Connection,NODE 72,AIRTERMINAL:SINGLEDUCT:VAV:HEATANDCOOL:NOREHEAT,ALL_ST=SALES AREA_FL=BUILDING STORY 1_SCH=C 2 VAV TERMINAL,Inlet,1
 Non-Parent Node Connection,NODE 6,AIRLOOPHVAC:ZONEMIXER,AIR LOOP HVAC ZONE MIXER 1,Outlet,1
 Non-Parent Node Connection,NODE 14,AIRLOOPHVAC:ZONEMIXER,AIR LOOP HVAC ZONE MIXER 1,Inlet,1
 Non-Parent Node Connection,NODE 18,AIRLOOPHVAC:ZONEMIXER,AIR LOOP HVAC ZONE MIXER 2,Outlet,1
 Non-Parent Node Connection,NODE 25,AIRLOOPHVAC:ZONEMIXER,AIR LOOP HVAC ZONE MIXER 2,Inlet,1
 Non-Parent Node Connection,NODE 29,AIRLOOPHVAC:ZONEMIXER,AIR LOOP HVAC ZONE MIXER 3,Outlet,1
 Non-Parent Node Connection,NODE 36,AIRLOOPHVAC:ZONEMIXER,AIR LOOP HVAC ZONE MIXER 3,Inlet,1
 Non-Parent Node Connection,NODE 13,OUTDOORAIR:MIXER,AIR LOOP HVAC OUTDOOR AIR SYSTEM 1 OUTDOOR AIR MIXER,Outlet,1
 Non-Parent Node Connection,NODE 9,OUTDOORAIR:MIXER,AIR LOOP HVAC OUTDOOR AIR SYSTEM 1 OUTDOOR AIR MIXER,Inlet,1
 Non-Parent Node Connection,NODE 10,OUTDOORAIR:MIXER,AIR LOOP HVAC OUTDOOR AIR SYSTEM 1 OUTDOOR AIR MIXER,ReliefAir,1
 Non-Parent Node Connection,NODE 2,OUTDOORAIR:MIXER,AIR LOOP HVAC OUTDOOR AIR SYSTEM 1 OUTDOOR AIR MIXER,Inlet,1
 Non-Parent Node Connection,NODE 24,OUTDOORAIR:MIXER,AIR LOOP HVAC OUTDOOR AIR SYSTEM 2 OUTDOOR AIR MIXER,Outlet,1
 Non-Parent Node Connection,NODE 20,OUTDOORAIR:MIXER,AIR LOOP HVAC OUTDOOR AIR SYSTEM 2 OUTDOOR AIR MIXER,Inlet,1
 Non-Parent Node Connection,NODE 21,OUTDOORAIR:MIXER,AIR LOOP HVAC OUTDOOR AIR SYSTEM 2 OUTDOOR AIR MIXER,ReliefAir,1
 Non-Parent Node Connection,NODE 15,OUTDOORAIR:MIXER,AIR LOOP HVAC OUTDOOR AIR SYSTEM 2 OUTDOOR AIR MIXER,Inlet,1
 Non-Parent Node Connection,NODE 35,OUTDOORAIR:MIXER,AIR LOOP HVAC OUTDOOR AIR SYSTEM 3 OUTDOOR AIR MIXER,Outlet,1
 Non-Parent Node Connection,NODE 31,OUTDOORAIR:MIXER,AIR LOOP HVAC OUTDOOR AIR SYSTEM 3 OUTDOOR AIR MIXER,Inlet,1
 Non-Parent Node Connection,NODE 32,OUTDOORAIR:MIXER,AIR LOOP HVAC OUTDOOR AIR SYSTEM 3 OUTDOOR AIR MIXER,ReliefAir,1
 Non-Parent Node Connection,NODE 26,OUTDOORAIR:MIXER,AIR LOOP HVAC OUTDOOR AIR SYSTEM 3 OUTDOOR AIR MIXER,Inlet,1
 Non-Parent Node Connection,NODE 13,CONTROLLER:OUTDOORAIR,CONTROLLER OUTDOOR AIR 1,Sensor,1
 Non-Parent Node Connection,NODE 9,CONTROLLER:OUTDOORAIR,CONTROLLER OUTDOOR AIR 1,Actuator,1
 Non-Parent Node Connection,NODE 10,CONTROLLER:OUTDOORAIR,CONTROLLER OUTDOOR AIR 1,Actuator,1
 Non-Parent Node Connection,NODE 2,CONTROLLER:OUTDOORAIR,CONTROLLER OUTDOOR AIR 1,Sensor,1
 Non-Parent Node Connection,NODE 24,CONTROLLER:OUTDOORAIR,CONTROLLER OUTDOOR AIR 2,Sensor,1
 Non-Parent Node Connection,NODE 20,CONTROLLER:OUTDOORAIR,CONTROLLER OUTDOOR AIR 2,Actuator,1
 Non-Parent Node Connection,NODE 21,CONTROLLER:OUTDOORAIR,CONTROLLER OUTDOOR AIR 2,Actuator,1
 Non-Parent Node Connection,NODE 15,CONTROLLER:OUTDOORAIR,CONTROLLER OUTDOOR AIR 2,Sensor,1
 Non-Parent Node Connection,NODE 35,CONTROLLER:OUTDOORAIR,CONTROLLER OUTDOOR AIR 3,Sensor,1
 Non-Parent Node Connection,NODE 31,CONTROLLER:OUTDOORAIR,CONTROLLER OUTDOOR AIR 3,Actuator,1
 Non-Parent Node Connection,NODE 32,CONTROLLER:OUTDOORAIR,CONTROLLER OUTDOOR AIR 3,Actuator,1
 Non-Parent Node Connection,NODE 26,CONTROLLER:OUTDOORAIR,CONTROLLER OUTDOOR AIR 3,Sensor,1
 Non-Parent Node Connection,NODE 12,COIL:HEATING:ELECTRIC,COIL HEATING ELECTRIC 1,Inlet,1
 Non-Parent Node Connection,NODE 75,COIL:HEATING:ELECTRIC,COIL HEATING ELECTRIC 1,Outlet,1
 Non-Parent Node Connection,NODE 3,COIL:HEATING:ELECTRIC,COIL HEATING ELECTRIC 1,Sensor,1
 Non-Parent Node Connection,NODE 23,COIL:HEATING:ELECTRIC,COIL HEATING ELECTRIC 2,Inlet,1
 Non-Parent Node Connection,NODE 73,COIL:HEATING:ELECTRIC,COIL HEATING ELECTRIC 2,Outlet,1
 Non-Parent Node Connection,NODE 16,COIL:HEATING:ELECTRIC,COIL HEATING ELECTRIC 2,Sensor,1
 Non-Parent Node Connection,NODE 34,COIL:HEATING:ELECTRIC,COIL HEATING ELECTRIC 3,Inlet,1
 Non-Parent Node Connection,NODE 71,COIL:HEATING:ELECTRIC,COIL HEATING ELECTRIC 3,Outlet,1
 Non-Parent Node Connection,NODE 27,COIL:HEATING:ELECTRIC,COIL HEATING ELECTRIC 3,Sensor,1
 Non-Parent Node Connection,NODE 37,PUMP:CONSTANTSPEED,SERVICE WATER LOOP PUMP,Inlet,1
 Non-Parent Node Connection,NODE 43,PUMP:CONSTANTSPEED,SERVICE WATER LOOP PUMP,Outlet,1
