! Program Version,EnergyPlus, Version 8.9.0-497bb3e71c, YMD=2018.06.06 17:05,
! Output:Meter Objects (applicable to this run)
Output:Meter,Electricity:Facility,hourly; !- [J]
Output:Meter:Cumulative,Electricity:Facility,hourly; !- [J]
Output:Meter,Electricity:Building,hourly; !- [J]
Output:Meter:Cumulative,Electricity:Building,hourly; !- [J]
Output:Meter,Electricity:Zone:CORRIDORFLR1 ZN,hourly; !- [J]
Output:Meter:Cumulative,Electricity:Zone:CORRIDORFLR1 ZN,hourly; !- [J]
Output:Meter,InteriorLights:Electricity,hourly; !- [J]
Output:Meter:Cumulative,InteriorLights:Electricity,hourly; !- [J]
Output:Meter,InteriorLights:Electricity:Zone:CORRIDORFLR1 ZN,hourly; !- [J]
Output:Meter:Cumulative,InteriorLights:Electricity:Zone:CORRIDORFLR1 ZN,hourly; !- [J]
Output:Meter,General:InteriorLights:Electricity,hourly; !- [J]
Output:Meter:Cumulative,General:InteriorLights:Electricity,hourly; !- [J]
Output:Meter,Electricity:Zone:CORRIDORFLR2 ZN,hourly; !- [J]
Output:Meter:Cumulative,Electricity:Zone:CORRIDORFLR2 ZN,hourly; !- [J]
Output:Meter,InteriorLights:Electricity:Zone:CORRIDORFLR2 ZN,hourly; !- [J]
Output:Meter:Cumulative,InteriorLights:Electricity:Zone:CORRIDORFLR2 ZN,hourly; !- [J]
Output:Meter,Electricity:Zone:CORRIDORFLR3 ZN,hourly; !- [J]
Output:Meter:Cumulative,Electricity:Zone:CORRIDORFLR3 ZN,hourly; !- [J]
Output:Meter,InteriorLights:Electricity:Zone:CORRIDORFLR3 ZN,hourly; !- [J]
Output:Meter:Cumulative,InteriorLights:Electricity:Zone:CORRIDORFLR3 ZN,hourly; !- [J]
Output:Meter,Electricity:Zone:CORRIDORFLR4 ZN,hourly; !- [J]
Output:Meter:Cumulative,Electricity:Zone:CORRIDORFLR4 ZN,hourly; !- [J]
Output:Meter,InteriorLights:Electricity:Zone:CORRIDORFLR4 ZN,hourly; !- [J]
Output:Meter:Cumulative,InteriorLights:Electricity:Zone:CORRIDORFLR4 ZN,hourly; !- [J]
Output:Meter,Electricity:Zone:EXERCISECENTERFLR1 ZN,hourly; !- [J]
Output:Meter:Cumulative,Electricity:Zone:EXERCISECENTERFLR1 ZN,hourly; !- [J]
Output:Meter,InteriorLights:Electricity:Zone:EXERCISECENTERFLR1 ZN,hourly; !- [J]
Output:Meter:Cumulative,InteriorLights:Electricity:Zone:EXERCISECENTERFLR1 ZN,hourly; !- [J]
Output:Meter,Electricity:Zone:FRONTLOUNGEFLR1 ZN,hourly; !- [J]
Output:Meter:Cumulative,Electricity:Zone:FRONTLOUNGEFLR1 ZN,hourly; !- [J]
Output:Meter,InteriorLights:Electricity:Zone:FRONTLOUNGEFLR1 ZN,hourly; !- [J]
Output:Meter:Cumulative,InteriorLights:Electricity:Zone:FRONTLOUNGEFLR1 ZN,hourly; !- [J]
Output:Meter,Electricity:Zone:GUESTROOM103 ZN,hourly; !- [J]
Output:Meter:Cumulative,Electricity:Zone:GUESTROOM103 ZN,hourly; !- [J]
Output:Meter,InteriorLights:Electricity:Zone:GUESTROOM103 ZN,hourly; !- [J]
Output:Meter:Cumulative,InteriorLights:Electricity:Zone:GUESTROOM103 ZN,hourly; !- [J]
Output:Meter,Electricity:Zone:GUESTROOM104 ZN,hourly; !- [J]
Output:Meter:Cumulative,Electricity:Zone:GUESTROOM104 ZN,hourly; !- [J]
Output:Meter,InteriorLights:Electricity:Zone:GUESTROOM104 ZN,hourly; !- [J]
Output:Meter:Cumulative,InteriorLights:Electricity:Zone:GUESTROOM104 ZN,hourly; !- [J]
Output:Meter,Electricity:Zone:GUESTROOM105 ZN,hourly; !- [J]
Output:Meter:Cumulative,Electricity:Zone:GUESTROOM105 ZN,hourly; !- [J]
Output:Meter,InteriorLights:Electricity:Zone:GUESTROOM105 ZN,hourly; !- [J]
Output:Meter:Cumulative,InteriorLights:Electricity:Zone:GUESTROOM105 ZN,hourly; !- [J]
Output:Meter,Electricity:Zone:GUESTROOM202_205 ZN,hourly; !- [J]
Output:Meter:Cumulative,Electricity:Zone:GUESTROOM202_205 ZN,hourly; !- [J]
Output:Meter,InteriorLights:Electricity:Zone:GUESTROOM202_205 ZN,hourly; !- [J]
Output:Meter:Cumulative,InteriorLights:Electricity:Zone:GUESTROOM202_205 ZN,hourly; !- [J]
Output:Meter,Electricity:Zone:GUESTROOM206_208 ZN,hourly; !- [J]
Output:Meter:Cumulative,Electricity:Zone:GUESTROOM206_208 ZN,hourly; !- [J]
Output:Meter,InteriorLights:Electricity:Zone:GUESTROOM206_208 ZN,hourly; !- [J]
Output:Meter:Cumulative,InteriorLights:Electricity:Zone:GUESTROOM206_208 ZN,hourly; !- [J]
Output:Meter,Electricity:Zone:GUESTROOM209_212 ZN,hourly; !- [J]
Output:Meter:Cumulative,Electricity:Zone:GUESTROOM209_212 ZN,hourly; !- [J]
Output:Meter,InteriorLights:Electricity:Zone:GUESTROOM209_212 ZN,hourly; !- [J]
Output:Meter:Cumulative,InteriorLights:Electricity:Zone:GUESTROOM209_212 ZN,hourly; !- [J]
Output:Meter,Electricity:Zone:GUESTROOM213 ZN,hourly; !- [J]
Output:Meter:Cumulative,Electricity:Zone:GUESTROOM213 ZN,hourly; !- [J]
Output:Meter,InteriorLights:Electricity:Zone:GUESTROOM213 ZN,hourly; !- [J]
Output:Meter:Cumulative,InteriorLights:Electricity:Zone:GUESTROOM213 ZN,hourly; !- [J]
Output:Meter,Electricity:Zone:GUESTROOM214 ZN,hourly; !- [J]
Output:Meter:Cumulative,Electricity:Zone:GUESTROOM214 ZN,hourly; !- [J]
Output:Meter,InteriorLights:Electricity:Zone:GUESTROOM214 ZN,hourly; !- [J]
Output:Meter:Cumulative,InteriorLights:Electricity:Zone:GUESTROOM214 ZN,hourly; !- [J]
Output:Meter,Electricity:Zone:GUESTROOM219 ZN,hourly; !- [J]
Output:Meter:Cumulative,Electricity:Zone:GUESTROOM219 ZN,hourly; !- [J]
Output:Meter,InteriorLights:Electricity:Zone:GUESTROOM219 ZN,hourly; !- [J]
Output:Meter:Cumulative,InteriorLights:Electricity:Zone:GUESTROOM219 ZN,hourly; !- [J]
Output:Meter,Electricity:Zone:GUESTROOM220_223 ZN,hourly; !- [J]
Output:Meter:Cumulative,Electricity:Zone:GUESTROOM220_223 ZN,hourly; !- [J]
Output:Meter,InteriorLights:Electricity:Zone:GUESTROOM220_223 ZN,hourly; !- [J]
Output:Meter:Cumulative,InteriorLights:Electricity:Zone:GUESTROOM220_223 ZN,hourly; !- [J]
Output:Meter,Electricity:Zone:GUESTROOM224 ZN,hourly; !- [J]
Output:Meter:Cumulative,Electricity:Zone:GUESTROOM224 ZN,hourly; !- [J]
Output:Meter,InteriorLights:Electricity:Zone:GUESTROOM224 ZN,hourly; !- [J]
Output:Meter:Cumulative,InteriorLights:Electricity:Zone:GUESTROOM224 ZN,hourly; !- [J]
Output:Meter,Electricity:Zone:GUESTROOM309_312 ZN,hourly; !- [J]
Output:Meter:Cumulative,Electricity:Zone:GUESTROOM309_312 ZN,hourly; !- [J]
Output:Meter,InteriorLights:Electricity:Zone:GUESTROOM309_312 ZN,hourly; !- [J]
Output:Meter:Cumulative,InteriorLights:Electricity:Zone:GUESTROOM309_312 ZN,hourly; !- [J]
Output:Meter,Electricity:Zone:GUESTROOM314 ZN,hourly; !- [J]
Output:Meter:Cumulative,Electricity:Zone:GUESTROOM314 ZN,hourly; !- [J]
Output:Meter,InteriorLights:Electricity:Zone:GUESTROOM314 ZN,hourly; !- [J]
Output:Meter:Cumulative,InteriorLights:Electricity:Zone:GUESTROOM314 ZN,hourly; !- [J]
Output:Meter,Electricity:Zone:GUESTROOM315_318 ZN,hourly; !- [J]
Output:Meter:Cumulative,Electricity:Zone:GUESTROOM315_318 ZN,hourly; !- [J]
Output:Meter,InteriorLights:Electricity:Zone:GUESTROOM315_318 ZN,hourly; !- [J]
Output:Meter:Cumulative,InteriorLights:Electricity:Zone:GUESTROOM315_318 ZN,hourly; !- [J]
Output:Meter,Electricity:Zone:GUESTROOM320_323 ZN,hourly; !- [J]
Output:Meter:Cumulative,Electricity:Zone:GUESTROOM320_323 ZN,hourly; !- [J]
Output:Meter,InteriorLights:Electricity:Zone:GUESTROOM320_323 ZN,hourly; !- [J]
Output:Meter:Cumulative,InteriorLights:Electricity:Zone:GUESTROOM320_323 ZN,hourly; !- [J]
Output:Meter,Electricity:Zone:GUESTROOM101 ZN,hourly; !- [J]
Output:Meter:Cumulative,Electricity:Zone:GUESTROOM101 ZN,hourly; !- [J]
Output:Meter,InteriorLights:Electricity:Zone:GUESTROOM101 ZN,hourly; !- [J]
Output:Meter:Cumulative,InteriorLights:Electricity:Zone:GUESTROOM101 ZN,hourly; !- [J]
Output:Meter,Electricity:Zone:GUESTROOM102 ZN,hourly; !- [J]
Output:Meter:Cumulative,Electricity:Zone:GUESTROOM102 ZN,hourly; !- [J]
Output:Meter,InteriorLights:Electricity:Zone:GUESTROOM102 ZN,hourly; !- [J]
Output:Meter:Cumulative,InteriorLights:Electricity:Zone:GUESTROOM102 ZN,hourly; !- [J]
Output:Meter,Electricity:Zone:GUESTROOM201 ZN,hourly; !- [J]
Output:Meter:Cumulative,Electricity:Zone:GUESTROOM201 ZN,hourly; !- [J]
Output:Meter,InteriorLights:Electricity:Zone:GUESTROOM201 ZN,hourly; !- [J]
Output:Meter:Cumulative,InteriorLights:Electricity:Zone:GUESTROOM201 ZN,hourly; !- [J]
Output:Meter,Electricity:Zone:GUESTROOM215_218 ZN,hourly; !- [J]
Output:Meter:Cumulative,Electricity:Zone:GUESTROOM215_218 ZN,hourly; !- [J]
Output:Meter,InteriorLights:Electricity:Zone:GUESTROOM215_218 ZN,hourly; !- [J]
Output:Meter:Cumulative,InteriorLights:Electricity:Zone:GUESTROOM215_218 ZN,hourly; !- [J]
Output:Meter,Electricity:Zone:GUESTROOM301 ZN,hourly; !- [J]
Output:Meter:Cumulative,Electricity:Zone:GUESTROOM301 ZN,hourly; !- [J]
Output:Meter,InteriorLights:Electricity:Zone:GUESTROOM301 ZN,hourly; !- [J]
Output:Meter:Cumulative,InteriorLights:Electricity:Zone:GUESTROOM301 ZN,hourly; !- [J]
Output:Meter,Electricity:Zone:GUESTROOM302_305 ZN,hourly; !- [J]
Output:Meter:Cumulative,Electricity:Zone:GUESTROOM302_305 ZN,hourly; !- [J]
Output:Meter,InteriorLights:Electricity:Zone:GUESTROOM302_305 ZN,hourly; !- [J]
Output:Meter:Cumulative,InteriorLights:Electricity:Zone:GUESTROOM302_305 ZN,hourly; !- [J]
Output:Meter,Electricity:Zone:GUESTROOM306_308 ZN,hourly; !- [J]
Output:Meter:Cumulative,Electricity:Zone:GUESTROOM306_308 ZN,hourly; !- [J]
Output:Meter,InteriorLights:Electricity:Zone:GUESTROOM306_308 ZN,hourly; !- [J]
Output:Meter:Cumulative,InteriorLights:Electricity:Zone:GUESTROOM306_308 ZN,hourly; !- [J]
Output:Meter,Electricity:Zone:GUESTROOM313 ZN,hourly; !- [J]
Output:Meter:Cumulative,Electricity:Zone:GUESTROOM313 ZN,hourly; !- [J]
Output:Meter,InteriorLights:Electricity:Zone:GUESTROOM313 ZN,hourly; !- [J]
Output:Meter:Cumulative,InteriorLights:Electricity:Zone:GUESTROOM313 ZN,hourly; !- [J]
Output:Meter,Electricity:Zone:GUESTROOM319 ZN,hourly; !- [J]
Output:Meter:Cumulative,Electricity:Zone:GUESTROOM319 ZN,hourly; !- [J]
Output:Meter,InteriorLights:Electricity:Zone:GUESTROOM319 ZN,hourly; !- [J]
Output:Meter:Cumulative,InteriorLights:Electricity:Zone:GUESTROOM319 ZN,hourly; !- [J]
Output:Meter,Electricity:Zone:GUESTROOM324 ZN,hourly; !- [J]
Output:Meter:Cumulative,Electricity:Zone:GUESTROOM324 ZN,hourly; !- [J]
Output:Meter,InteriorLights:Electricity:Zone:GUESTROOM324 ZN,hourly; !- [J]
Output:Meter:Cumulative,InteriorLights:Electricity:Zone:GUESTROOM324 ZN,hourly; !- [J]
Output:Meter,Electricity:Zone:GUESTROOM401 ZN,hourly; !- [J]
Output:Meter:Cumulative,Electricity:Zone:GUESTROOM401 ZN,hourly; !- [J]
Output:Meter,InteriorLights:Electricity:Zone:GUESTROOM401 ZN,hourly; !- [J]
Output:Meter:Cumulative,InteriorLights:Electricity:Zone:GUESTROOM401 ZN,hourly; !- [J]
Output:Meter,Electricity:Zone:GUESTROOM409_412 ZN,hourly; !- [J]
Output:Meter:Cumulative,Electricity:Zone:GUESTROOM409_412 ZN,hourly; !- [J]
Output:Meter,InteriorLights:Electricity:Zone:GUESTROOM409_412 ZN,hourly; !- [J]
Output:Meter:Cumulative,InteriorLights:Electricity:Zone:GUESTROOM409_412 ZN,hourly; !- [J]
Output:Meter,Electricity:Zone:GUESTROOM415_418 ZN,hourly; !- [J]
Output:Meter:Cumulative,Electricity:Zone:GUESTROOM415_418 ZN,hourly; !- [J]
Output:Meter,InteriorLights:Electricity:Zone:GUESTROOM415_418 ZN,hourly; !- [J]
Output:Meter:Cumulative,InteriorLights:Electricity:Zone:GUESTROOM415_418 ZN,hourly; !- [J]
Output:Meter,Electricity:Zone:GUESTROOM419 ZN,hourly; !- [J]
Output:Meter:Cumulative,Electricity:Zone:GUESTROOM419 ZN,hourly; !- [J]
Output:Meter,InteriorLights:Electricity:Zone:GUESTROOM419 ZN,hourly; !- [J]
Output:Meter:Cumulative,InteriorLights:Electricity:Zone:GUESTROOM419 ZN,hourly; !- [J]
Output:Meter,Electricity:Zone:GUESTROOM420_423 ZN,hourly; !- [J]
Output:Meter:Cumulative,Electricity:Zone:GUESTROOM420_423 ZN,hourly; !- [J]
Output:Meter,InteriorLights:Electricity:Zone:GUESTROOM420_423 ZN,hourly; !- [J]
Output:Meter:Cumulative,InteriorLights:Electricity:Zone:GUESTROOM420_423 ZN,hourly; !- [J]
Output:Meter,Electricity:Zone:GUESTROOM424 ZN,hourly; !- [J]
Output:Meter:Cumulative,Electricity:Zone:GUESTROOM424 ZN,hourly; !- [J]
Output:Meter,InteriorLights:Electricity:Zone:GUESTROOM424 ZN,hourly; !- [J]
Output:Meter:Cumulative,InteriorLights:Electricity:Zone:GUESTROOM424 ZN,hourly; !- [J]
Output:Meter,Electricity:Zone:GUESTROOM402_405 ZN,hourly; !- [J]
Output:Meter:Cumulative,Electricity:Zone:GUESTROOM402_405 ZN,hourly; !- [J]
Output:Meter,InteriorLights:Electricity:Zone:GUESTROOM402_405 ZN,hourly; !- [J]
Output:Meter:Cumulative,InteriorLights:Electricity:Zone:GUESTROOM402_405 ZN,hourly; !- [J]
Output:Meter,Electricity:Zone:GUESTROOM406_408 ZN,hourly; !- [J]
Output:Meter:Cumulative,Electricity:Zone:GUESTROOM406_408 ZN,hourly; !- [J]
Output:Meter,InteriorLights:Electricity:Zone:GUESTROOM406_408 ZN,hourly; !- [J]
Output:Meter:Cumulative,InteriorLights:Electricity:Zone:GUESTROOM406_408 ZN,hourly; !- [J]
Output:Meter,Electricity:Zone:GUESTROOM413 ZN,hourly; !- [J]
Output:Meter:Cumulative,Electricity:Zone:GUESTROOM413 ZN,hourly; !- [J]
Output:Meter,InteriorLights:Electricity:Zone:GUESTROOM413 ZN,hourly; !- [J]
Output:Meter:Cumulative,InteriorLights:Electricity:Zone:GUESTROOM413 ZN,hourly; !- [J]
Output:Meter,Electricity:Zone:GUESTROOM414 ZN,hourly; !- [J]
Output:Meter:Cumulative,Electricity:Zone:GUESTROOM414 ZN,hourly; !- [J]
Output:Meter,InteriorLights:Electricity:Zone:GUESTROOM414 ZN,hourly; !- [J]
Output:Meter:Cumulative,InteriorLights:Electricity:Zone:GUESTROOM414 ZN,hourly; !- [J]
Output:Meter,Electricity:Zone:LAUNDRYROOMFLR1 ZN,hourly; !- [J]
Output:Meter:Cumulative,Electricity:Zone:LAUNDRYROOMFLR1 ZN,hourly; !- [J]
Output:Meter,InteriorLights:Electricity:Zone:LAUNDRYROOMFLR1 ZN,hourly; !- [J]
Output:Meter:Cumulative,InteriorLights:Electricity:Zone:LAUNDRYROOMFLR1 ZN,hourly; !- [J]
Output:Meter,Electricity:Zone:MECHANICALROOMFLR1 ZN,hourly; !- [J]
Output:Meter:Cumulative,Electricity:Zone:MECHANICALROOMFLR1 ZN,hourly; !- [J]
Output:Meter,InteriorLights:Electricity:Zone:MECHANICALROOMFLR1 ZN,hourly; !- [J]
Output:Meter:Cumulative,InteriorLights:Electricity:Zone:MECHANICALROOMFLR1 ZN,hourly; !- [J]
Output:Meter,Electricity:Zone:MEETINGROOMFLR1 ZN,hourly; !- [J]
Output:Meter:Cumulative,Electricity:Zone:MEETINGROOMFLR1 ZN,hourly; !- [J]
Output:Meter,InteriorLights:Electricity:Zone:MEETINGROOMFLR1 ZN,hourly; !- [J]
Output:Meter:Cumulative,InteriorLights:Electricity:Zone:MEETINGROOMFLR1 ZN,hourly; !- [J]
Output:Meter,Electricity:Zone:FRONTOFFICEFLR1 ZN,hourly; !- [J]
Output:Meter:Cumulative,Electricity:Zone:FRONTOFFICEFLR1 ZN,hourly; !- [J]
Output:Meter,InteriorLights:Electricity:Zone:FRONTOFFICEFLR1 ZN,hourly; !- [J]
Output:Meter:Cumulative,InteriorLights:Electricity:Zone:FRONTOFFICEFLR1 ZN,hourly; !- [J]
Output:Meter,Electricity:Zone:RESTROOMFLR1 ZN,hourly; !- [J]
Output:Meter:Cumulative,Electricity:Zone:RESTROOMFLR1 ZN,hourly; !- [J]
Output:Meter,InteriorLights:Electricity:Zone:RESTROOMFLR1 ZN,hourly; !- [J]
Output:Meter:Cumulative,InteriorLights:Electricity:Zone:RESTROOMFLR1 ZN,hourly; !- [J]
Output:Meter,Electricity:Zone:EMPLOYEELOUNGEFLR1 ZN,hourly; !- [J]
Output:Meter:Cumulative,Electricity:Zone:EMPLOYEELOUNGEFLR1 ZN,hourly; !- [J]
Output:Meter,InteriorLights:Electricity:Zone:EMPLOYEELOUNGEFLR1 ZN,hourly; !- [J]
Output:Meter:Cumulative,InteriorLights:Electricity:Zone:EMPLOYEELOUNGEFLR1 ZN,hourly; !- [J]
Output:Meter,Electricity:Zone:FRONTSTAIRSFLR1 ZN,hourly; !- [J]
Output:Meter:Cumulative,Electricity:Zone:FRONTSTAIRSFLR1 ZN,hourly; !- [J]
Output:Meter,InteriorLights:Electricity:Zone:FRONTSTAIRSFLR1 ZN,hourly; !- [J]
Output:Meter:Cumulative,InteriorLights:Electricity:Zone:FRONTSTAIRSFLR1 ZN,hourly; !- [J]
Output:Meter,Electricity:Zone:FRONTSTAIRSFLR2 ZN,hourly; !- [J]
Output:Meter:Cumulative,Electricity:Zone:FRONTSTAIRSFLR2 ZN,hourly; !- [J]
Output:Meter,InteriorLights:Electricity:Zone:FRONTSTAIRSFLR2 ZN,hourly; !- [J]
Output:Meter:Cumulative,InteriorLights:Electricity:Zone:FRONTSTAIRSFLR2 ZN,hourly; !- [J]
Output:Meter,Electricity:Zone:FRONTSTAIRSFLR3 ZN,hourly; !- [J]
Output:Meter:Cumulative,Electricity:Zone:FRONTSTAIRSFLR3 ZN,hourly; !- [J]
Output:Meter,InteriorLights:Electricity:Zone:FRONTSTAIRSFLR3 ZN,hourly; !- [J]
Output:Meter:Cumulative,InteriorLights:Electricity:Zone:FRONTSTAIRSFLR3 ZN,hourly; !- [J]
Output:Meter,Electricity:Zone:REARSTAIRSFLR1 ZN,hourly; !- [J]
Output:Meter:Cumulative,Electricity:Zone:REARSTAIRSFLR1 ZN,hourly; !- [J]
Output:Meter,InteriorLights:Electricity:Zone:REARSTAIRSFLR1 ZN,hourly; !- [J]
Output:Meter:Cumulative,InteriorLights:Electricity:Zone:REARSTAIRSFLR1 ZN,hourly; !- [J]
Output:Meter,Electricity:Zone:REARSTAIRSFLR2 ZN,hourly; !- [J]
Output:Meter:Cumulative,Electricity:Zone:REARSTAIRSFLR2 ZN,hourly; !- [J]
Output:Meter,InteriorLights:Electricity:Zone:REARSTAIRSFLR2 ZN,hourly; !- [J]
Output:Meter:Cumulative,InteriorLights:Electricity:Zone:REARSTAIRSFLR2 ZN,hourly; !- [J]
Output:Meter,Electricity:Zone:REARSTAIRSFLR3 ZN,hourly; !- [J]
Output:Meter:Cumulative,Electricity:Zone:REARSTAIRSFLR3 ZN,hourly; !- [J]
Output:Meter,InteriorLights:Electricity:Zone:REARSTAIRSFLR3 ZN,hourly; !- [J]
Output:Meter:Cumulative,InteriorLights:Electricity:Zone:REARSTAIRSFLR3 ZN,hourly; !- [J]
Output:Meter,Electricity:Zone:FRONTSTAIRSFLR4 ZN,hourly; !- [J]
Output:Meter:Cumulative,Electricity:Zone:FRONTSTAIRSFLR4 ZN,hourly; !- [J]
Output:Meter,InteriorLights:Electricity:Zone:FRONTSTAIRSFLR4 ZN,hourly; !- [J]
Output:Meter:Cumulative,InteriorLights:Electricity:Zone:FRONTSTAIRSFLR4 ZN,hourly; !- [J]
Output:Meter,Electricity:Zone:REARSTAIRSFLR4 ZN,hourly; !- [J]
Output:Meter:Cumulative,Electricity:Zone:REARSTAIRSFLR4 ZN,hourly; !- [J]
Output:Meter,InteriorLights:Electricity:Zone:REARSTAIRSFLR4 ZN,hourly; !- [J]
Output:Meter:Cumulative,InteriorLights:Electricity:Zone:REARSTAIRSFLR4 ZN,hourly; !- [J]
Output:Meter,Electricity:Zone:FRONTSTORAGEFLR1 ZN,hourly; !- [J]
Output:Meter:Cumulative,Electricity:Zone:FRONTSTORAGEFLR1 ZN,hourly; !- [J]
Output:Meter,InteriorLights:Electricity:Zone:FRONTSTORAGEFLR1 ZN,hourly; !- [J]
Output:Meter:Cumulative,InteriorLights:Electricity:Zone:FRONTSTORAGEFLR1 ZN,hourly; !- [J]
Output:Meter,Electricity:Zone:FRONTSTORAGEFLR2 ZN,hourly; !- [J]
Output:Meter:Cumulative,Electricity:Zone:FRONTSTORAGEFLR2 ZN,hourly; !- [J]
Output:Meter,InteriorLights:Electricity:Zone:FRONTSTORAGEFLR2 ZN,hourly; !- [J]
Output:Meter:Cumulative,InteriorLights:Electricity:Zone:FRONTSTORAGEFLR2 ZN,hourly; !- [J]
Output:Meter,Electricity:Zone:FRONTSTORAGEFLR3 ZN,hourly; !- [J]
Output:Meter:Cumulative,Electricity:Zone:FRONTSTORAGEFLR3 ZN,hourly; !- [J]
Output:Meter,InteriorLights:Electricity:Zone:FRONTSTORAGEFLR3 ZN,hourly; !- [J]
Output:Meter:Cumulative,InteriorLights:Electricity:Zone:FRONTSTORAGEFLR3 ZN,hourly; !- [J]
Output:Meter,Electricity:Zone:REARSTORAGEFLR1 ZN,hourly; !- [J]
Output:Meter:Cumulative,Electricity:Zone:REARSTORAGEFLR1 ZN,hourly; !- [J]
Output:Meter,InteriorLights:Electricity:Zone:REARSTORAGEFLR1 ZN,hourly; !- [J]
Output:Meter:Cumulative,InteriorLights:Electricity:Zone:REARSTORAGEFLR1 ZN,hourly; !- [J]
Output:Meter,Electricity:Zone:REARSTORAGEFLR2 ZN,hourly; !- [J]
Output:Meter:Cumulative,Electricity:Zone:REARSTORAGEFLR2 ZN,hourly; !- [J]
Output:Meter,InteriorLights:Electricity:Zone:REARSTORAGEFLR2 ZN,hourly; !- [J]
Output:Meter:Cumulative,InteriorLights:Electricity:Zone:REARSTORAGEFLR2 ZN,hourly; !- [J]
Output:Meter,Electricity:Zone:REARSTORAGEFLR3 ZN,hourly; !- [J]
Output:Meter:Cumulative,Electricity:Zone:REARSTORAGEFLR3 ZN,hourly; !- [J]
Output:Meter,InteriorLights:Electricity:Zone:REARSTORAGEFLR3 ZN,hourly; !- [J]
Output:Meter:Cumulative,InteriorLights:Electricity:Zone:REARSTORAGEFLR3 ZN,hourly; !- [J]
Output:Meter,Electricity:Zone:FRONTSTORAGEFLR4 ZN,hourly; !- [J]
Output:Meter:Cumulative,Electricity:Zone:FRONTSTORAGEFLR4 ZN,hourly; !- [J]
Output:Meter,InteriorLights:Electricity:Zone:FRONTSTORAGEFLR4 ZN,hourly; !- [J]
Output:Meter:Cumulative,InteriorLights:Electricity:Zone:FRONTSTORAGEFLR4 ZN,hourly; !- [J]
Output:Meter,Electricity:Zone:REARSTORAGEFLR4 ZN,hourly; !- [J]
Output:Meter:Cumulative,Electricity:Zone:REARSTORAGEFLR4 ZN,hourly; !- [J]
Output:Meter,InteriorLights:Electricity:Zone:REARSTORAGEFLR4 ZN,hourly; !- [J]
Output:Meter:Cumulative,InteriorLights:Electricity:Zone:REARSTORAGEFLR4 ZN,hourly; !- [J]
Output:Meter,Electricity:Zone:ELEVATORCOREFLR1 ZN,hourly; !- [J]
Output:Meter:Cumulative,Electricity:Zone:ELEVATORCOREFLR1 ZN,hourly; !- [J]
Output:Meter,InteriorEquipment:Electricity,hourly; !- [J]
Output:Meter:Cumulative,InteriorEquipment:Electricity,hourly; !- [J]
Output:Meter,InteriorEquipment:Electricity:Zone:ELEVATORCOREFLR1 ZN,hourly; !- [J]
Output:Meter:Cumulative,InteriorEquipment:Electricity:Zone:ELEVATORCOREFLR1 ZN,hourly; !- [J]
Output:Meter,General:InteriorEquipment:Electricity,hourly; !- [J]
Output:Meter:Cumulative,General:InteriorEquipment:Electricity,hourly; !- [J]
Output:Meter,InteriorEquipment:Electricity:Zone:EXERCISECENTERFLR1 ZN,hourly; !- [J]
Output:Meter:Cumulative,InteriorEquipment:Electricity:Zone:EXERCISECENTERFLR1 ZN,hourly; !- [J]
Output:Meter,InteriorEquipment:Electricity:Zone:FRONTLOUNGEFLR1 ZN,hourly; !- [J]
Output:Meter:Cumulative,InteriorEquipment:Electricity:Zone:FRONTLOUNGEFLR1 ZN,hourly; !- [J]
Output:Meter,InteriorEquipment:Electricity:Zone:GUESTROOM103 ZN,hourly; !- [J]
Output:Meter:Cumulative,InteriorEquipment:Electricity:Zone:GUESTROOM103 ZN,hourly; !- [J]
Output:Meter,InteriorEquipment:Electricity:Zone:GUESTROOM104 ZN,hourly; !- [J]
Output:Meter:Cumulative,InteriorEquipment:Electricity:Zone:GUESTROOM104 ZN,hourly; !- [J]
Output:Meter,InteriorEquipment:Electricity:Zone:GUESTROOM105 ZN,hourly; !- [J]
Output:Meter:Cumulative,InteriorEquipment:Electricity:Zone:GUESTROOM105 ZN,hourly; !- [J]
Output:Meter,InteriorEquipment:Electricity:Zone:GUESTROOM202_205 ZN,hourly; !- [J]
Output:Meter:Cumulative,InteriorEquipment:Electricity:Zone:GUESTROOM202_205 ZN,hourly; !- [J]
Output:Meter,InteriorEquipment:Electricity:Zone:GUESTROOM206_208 ZN,hourly; !- [J]
Output:Meter:Cumulative,InteriorEquipment:Electricity:Zone:GUESTROOM206_208 ZN,hourly; !- [J]
Output:Meter,InteriorEquipment:Electricity:Zone:GUESTROOM209_212 ZN,hourly; !- [J]
Output:Meter:Cumulative,InteriorEquipment:Electricity:Zone:GUESTROOM209_212 ZN,hourly; !- [J]
Output:Meter,InteriorEquipment:Electricity:Zone:GUESTROOM213 ZN,hourly; !- [J]
Output:Meter:Cumulative,InteriorEquipment:Electricity:Zone:GUESTROOM213 ZN,hourly; !- [J]
Output:Meter,InteriorEquipment:Electricity:Zone:GUESTROOM214 ZN,hourly; !- [J]
Output:Meter:Cumulative,InteriorEquipment:Electricity:Zone:GUESTROOM214 ZN,hourly; !- [J]
Output:Meter,InteriorEquipment:Electricity:Zone:GUESTROOM219 ZN,hourly; !- [J]
Output:Meter:Cumulative,InteriorEquipment:Electricity:Zone:GUESTROOM219 ZN,hourly; !- [J]
Output:Meter,InteriorEquipment:Electricity:Zone:GUESTROOM220_223 ZN,hourly; !- [J]
Output:Meter:Cumulative,InteriorEquipment:Electricity:Zone:GUESTROOM220_223 ZN,hourly; !- [J]
Output:Meter,InteriorEquipment:Electricity:Zone:GUESTROOM224 ZN,hourly; !- [J]
Output:Meter:Cumulative,InteriorEquipment:Electricity:Zone:GUESTROOM224 ZN,hourly; !- [J]
Output:Meter,InteriorEquipment:Electricity:Zone:GUESTROOM309_312 ZN,hourly; !- [J]
Output:Meter:Cumulative,InteriorEquipment:Electricity:Zone:GUESTROOM309_312 ZN,hourly; !- [J]
Output:Meter,InteriorEquipment:Electricity:Zone:GUESTROOM314 ZN,hourly; !- [J]
Output:Meter:Cumulative,InteriorEquipment:Electricity:Zone:GUESTROOM314 ZN,hourly; !- [J]
Output:Meter,InteriorEquipment:Electricity:Zone:GUESTROOM315_318 ZN,hourly; !- [J]
Output:Meter:Cumulative,InteriorEquipment:Electricity:Zone:GUESTROOM315_318 ZN,hourly; !- [J]
Output:Meter,InteriorEquipment:Electricity:Zone:GUESTROOM320_323 ZN,hourly; !- [J]
Output:Meter:Cumulative,InteriorEquipment:Electricity:Zone:GUESTROOM320_323 ZN,hourly; !- [J]
Output:Meter,InteriorEquipment:Electricity:Zone:GUESTROOM101 ZN,hourly; !- [J]
Output:Meter:Cumulative,InteriorEquipment:Electricity:Zone:GUESTROOM101 ZN,hourly; !- [J]
Output:Meter,InteriorEquipment:Electricity:Zone:GUESTROOM102 ZN,hourly; !- [J]
Output:Meter:Cumulative,InteriorEquipment:Electricity:Zone:GUESTROOM102 ZN,hourly; !- [J]
Output:Meter,InteriorEquipment:Electricity:Zone:GUESTROOM201 ZN,hourly; !- [J]
Output:Meter:Cumulative,InteriorEquipment:Electricity:Zone:GUESTROOM201 ZN,hourly; !- [J]
Output:Meter,InteriorEquipment:Electricity:Zone:GUESTROOM215_218 ZN,hourly; !- [J]
Output:Meter:Cumulative,InteriorEquipment:Electricity:Zone:GUESTROOM215_218 ZN,hourly; !- [J]
Output:Meter,InteriorEquipment:Electricity:Zone:GUESTROOM301 ZN,hourly; !- [J]
Output:Meter:Cumulative,InteriorEquipment:Electricity:Zone:GUESTROOM301 ZN,hourly; !- [J]
Output:Meter,InteriorEquipment:Electricity:Zone:GUESTROOM302_305 ZN,hourly; !- [J]
Output:Meter:Cumulative,InteriorEquipment:Electricity:Zone:GUESTROOM302_305 ZN,hourly; !- [J]
Output:Meter,InteriorEquipment:Electricity:Zone:GUESTROOM306_308 ZN,hourly; !- [J]
Output:Meter:Cumulative,InteriorEquipment:Electricity:Zone:GUESTROOM306_308 ZN,hourly; !- [J]
Output:Meter,InteriorEquipment:Electricity:Zone:GUESTROOM313 ZN,hourly; !- [J]
Output:Meter:Cumulative,InteriorEquipment:Electricity:Zone:GUESTROOM313 ZN,hourly; !- [J]
Output:Meter,InteriorEquipment:Electricity:Zone:GUESTROOM319 ZN,hourly; !- [J]
Output:Meter:Cumulative,InteriorEquipment:Electricity:Zone:GUESTROOM319 ZN,hourly; !- [J]
Output:Meter,InteriorEquipment:Electricity:Zone:GUESTROOM324 ZN,hourly; !- [J]
Output:Meter:Cumulative,InteriorEquipment:Electricity:Zone:GUESTROOM324 ZN,hourly; !- [J]
Output:Meter,InteriorEquipment:Electricity:Zone:GUESTROOM401 ZN,hourly; !- [J]
Output:Meter:Cumulative,InteriorEquipment:Electricity:Zone:GUESTROOM401 ZN,hourly; !- [J]
Output:Meter,InteriorEquipment:Electricity:Zone:GUESTROOM409_412 ZN,hourly; !- [J]
Output:Meter:Cumulative,InteriorEquipment:Electricity:Zone:GUESTROOM409_412 ZN,hourly; !- [J]
Output:Meter,InteriorEquipment:Electricity:Zone:GUESTROOM415_418 ZN,hourly; !- [J]
Output:Meter:Cumulative,InteriorEquipment:Electricity:Zone:GUESTROOM415_418 ZN,hourly; !- [J]
Output:Meter,InteriorEquipment:Electricity:Zone:GUESTROOM419 ZN,hourly; !- [J]
Output:Meter:Cumulative,InteriorEquipment:Electricity:Zone:GUESTROOM419 ZN,hourly; !- [J]
Output:Meter,InteriorEquipment:Electricity:Zone:GUESTROOM420_423 ZN,hourly; !- [J]
Output:Meter:Cumulative,InteriorEquipment:Electricity:Zone:GUESTROOM420_423 ZN,hourly; !- [J]
Output:Meter,InteriorEquipment:Electricity:Zone:GUESTROOM424 ZN,hourly; !- [J]
Output:Meter:Cumulative,InteriorEquipment:Electricity:Zone:GUESTROOM424 ZN,hourly; !- [J]
Output:Meter,InteriorEquipment:Electricity:Zone:GUESTROOM402_405 ZN,hourly; !- [J]
Output:Meter:Cumulative,InteriorEquipment:Electricity:Zone:GUESTROOM402_405 ZN,hourly; !- [J]
Output:Meter,InteriorEquipment:Electricity:Zone:GUESTROOM406_408 ZN,hourly; !- [J]
Output:Meter:Cumulative,InteriorEquipment:Electricity:Zone:GUESTROOM406_408 ZN,hourly; !- [J]
Output:Meter,InteriorEquipment:Electricity:Zone:GUESTROOM413 ZN,hourly; !- [J]
Output:Meter:Cumulative,InteriorEquipment:Electricity:Zone:GUESTROOM413 ZN,hourly; !- [J]
Output:Meter,InteriorEquipment:Electricity:Zone:GUESTROOM414 ZN,hourly; !- [J]
Output:Meter:Cumulative,InteriorEquipment:Electricity:Zone:GUESTROOM414 ZN,hourly; !- [J]
Output:Meter,InteriorEquipment:Electricity:Zone:LAUNDRYROOMFLR1 ZN,hourly; !- [J]
Output:Meter:Cumulative,InteriorEquipment:Electricity:Zone:LAUNDRYROOMFLR1 ZN,hourly; !- [J]
Output:Meter,InteriorEquipment:Electricity:Zone:MEETINGROOMFLR1 ZN,hourly; !- [J]
Output:Meter:Cumulative,InteriorEquipment:Electricity:Zone:MEETINGROOMFLR1 ZN,hourly; !- [J]
Output:Meter,InteriorEquipment:Electricity:Zone:FRONTOFFICEFLR1 ZN,hourly; !- [J]
Output:Meter:Cumulative,InteriorEquipment:Electricity:Zone:FRONTOFFICEFLR1 ZN,hourly; !- [J]
Output:Meter,InteriorEquipment:Electricity:Zone:EMPLOYEELOUNGEFLR1 ZN,hourly; !- [J]
Output:Meter:Cumulative,InteriorEquipment:Electricity:Zone:EMPLOYEELOUNGEFLR1 ZN,hourly; !- [J]
Output:Meter,Gas:Facility,hourly; !- [J]
Output:Meter:Cumulative,Gas:Facility,hourly; !- [J]
Output:Meter,Gas:Building,hourly; !- [J]
Output:Meter:Cumulative,Gas:Building,hourly; !- [J]
Output:Meter,Gas:Zone:LAUNDRYROOMFLR1 ZN,hourly; !- [J]
Output:Meter:Cumulative,Gas:Zone:LAUNDRYROOMFLR1 ZN,hourly; !- [J]
Output:Meter,InteriorEquipment:Gas,hourly; !- [J]
Output:Meter:Cumulative,InteriorEquipment:Gas,hourly; !- [J]
Output:Meter,InteriorEquipment:Gas:Zone:LAUNDRYROOMFLR1 ZN,hourly; !- [J]
Output:Meter:Cumulative,InteriorEquipment:Gas:Zone:LAUNDRYROOMFLR1 ZN,hourly; !- [J]
Output:Meter,General:InteriorEquipment:Gas,hourly; !- [J]
Output:Meter:Cumulative,General:InteriorEquipment:Gas,hourly; !- [J]
Output:Meter,PlantLoopHeatingDemand:Facility,hourly; !- [J]
Output:Meter:Cumulative,PlantLoopHeatingDemand:Facility,hourly; !- [J]
Output:Meter,PlantLoopHeatingDemand:Plant,hourly; !- [J]
Output:Meter:Cumulative,PlantLoopHeatingDemand:Plant,hourly; !- [J]
Output:Meter,WaterSystems:PlantLoopHeatingDemand,hourly; !- [J]
Output:Meter:Cumulative,WaterSystems:PlantLoopHeatingDemand,hourly; !- [J]
Output:Meter,General:WaterSystems:PlantLoopHeatingDemand,hourly; !- [J]
Output:Meter:Cumulative,General:WaterSystems:PlantLoopHeatingDemand,hourly; !- [J]
Output:Meter,Gas:Plant,hourly; !- [J]
Output:Meter:Cumulative,Gas:Plant,hourly; !- [J]
Output:Meter,WaterSystems:Gas,hourly; !- [J]
Output:Meter:Cumulative,WaterSystems:Gas,hourly; !- [J]
Output:Meter,General:WaterSystems:Gas,hourly; !- [J]
Output:Meter:Cumulative,General:WaterSystems:Gas,hourly; !- [J]
Output:Meter,Water:Facility,hourly; !- [m3]
Output:Meter:Cumulative,Water:Facility,hourly; !- [m3]
Output:Meter,Water:Plant,hourly; !- [m3]
Output:Meter:Cumulative,Water:Plant,hourly; !- [m3]
Output:Meter,WaterSystems:Water,hourly; !- [m3]
Output:Meter:Cumulative,WaterSystems:Water,hourly; !- [m3]
Output:Meter,General:WaterSystems:Water,hourly; !- [m3]
Output:Meter:Cumulative,General:WaterSystems:Water,hourly; !- [m3]
Output:Meter,MainsWater:Facility,hourly; !- [m3]
Output:Meter:Cumulative,MainsWater:Facility,hourly; !- [m3]
Output:Meter,MainsWater:Plant,hourly; !- [m3]
Output:Meter:Cumulative,MainsWater:Plant,hourly; !- [m3]
Output:Meter,WaterSystems:MainsWater,hourly; !- [m3]
Output:Meter:Cumulative,WaterSystems:MainsWater,hourly; !- [m3]
Output:Meter,General:WaterSystems:MainsWater,hourly; !- [m3]
Output:Meter:Cumulative,General:WaterSystems:MainsWater,hourly; !- [m3]
Output:Meter,EnergyTransfer:Facility,hourly; !- [J]
Output:Meter:Cumulative,EnergyTransfer:Facility,hourly; !- [J]
Output:Meter,EnergyTransfer:Building,hourly; !- [J]
Output:Meter:Cumulative,EnergyTransfer:Building,hourly; !- [J]
Output:Meter,EnergyTransfer:Zone:CORRIDORFLR1 ZN,hourly; !- [J]
Output:Meter:Cumulative,EnergyTransfer:Zone:CORRIDORFLR1 ZN,hourly; !- [J]
Output:Meter,Heating:EnergyTransfer,hourly; !- [J]
Output:Meter:Cumulative,Heating:EnergyTransfer,hourly; !- [J]
Output:Meter,Heating:EnergyTransfer:Zone:CORRIDORFLR1 ZN,hourly; !- [J]
Output:Meter:Cumulative,Heating:EnergyTransfer:Zone:CORRIDORFLR1 ZN,hourly; !- [J]
Output:Meter,Cooling:EnergyTransfer,hourly; !- [J]
Output:Meter:Cumulative,Cooling:EnergyTransfer,hourly; !- [J]
Output:Meter,Cooling:EnergyTransfer:Zone:CORRIDORFLR1 ZN,hourly; !- [J]
Output:Meter:Cumulative,Cooling:EnergyTransfer:Zone:CORRIDORFLR1 ZN,hourly; !- [J]
Output:Meter,EnergyTransfer:Zone:CORRIDORFLR2 ZN,hourly; !- [J]
Output:Meter:Cumulative,EnergyTransfer:Zone:CORRIDORFLR2 ZN,hourly; !- [J]
Output:Meter,Heating:EnergyTransfer:Zone:CORRIDORFLR2 ZN,hourly; !- [J]
Output:Meter:Cumulative,Heating:EnergyTransfer:Zone:CORRIDORFLR2 ZN,hourly; !- [J]
Output:Meter,Cooling:EnergyTransfer:Zone:CORRIDORFLR2 ZN,hourly; !- [J]
Output:Meter:Cumulative,Cooling:EnergyTransfer:Zone:CORRIDORFLR2 ZN,hourly; !- [J]
Output:Meter,EnergyTransfer:Zone:CORRIDORFLR3 ZN,hourly; !- [J]
Output:Meter:Cumulative,EnergyTransfer:Zone:CORRIDORFLR3 ZN,hourly; !- [J]
Output:Meter,Heating:EnergyTransfer:Zone:CORRIDORFLR3 ZN,hourly; !- [J]
Output:Meter:Cumulative,Heating:EnergyTransfer:Zone:CORRIDORFLR3 ZN,hourly; !- [J]
Output:Meter,Cooling:EnergyTransfer:Zone:CORRIDORFLR3 ZN,hourly; !- [J]
Output:Meter:Cumulative,Cooling:EnergyTransfer:Zone:CORRIDORFLR3 ZN,hourly; !- [J]
Output:Meter,EnergyTransfer:Zone:CORRIDORFLR4 ZN,hourly; !- [J]
Output:Meter:Cumulative,EnergyTransfer:Zone:CORRIDORFLR4 ZN,hourly; !- [J]
Output:Meter,Heating:EnergyTransfer:Zone:CORRIDORFLR4 ZN,hourly; !- [J]
Output:Meter:Cumulative,Heating:EnergyTransfer:Zone:CORRIDORFLR4 ZN,hourly; !- [J]
Output:Meter,Cooling:EnergyTransfer:Zone:CORRIDORFLR4 ZN,hourly; !- [J]
Output:Meter:Cumulative,Cooling:EnergyTransfer:Zone:CORRIDORFLR4 ZN,hourly; !- [J]
Output:Meter,EnergyTransfer:Zone:ELEVATORCOREFLR1 ZN,hourly; !- [J]
Output:Meter:Cumulative,EnergyTransfer:Zone:ELEVATORCOREFLR1 ZN,hourly; !- [J]
Output:Meter,Heating:EnergyTransfer:Zone:ELEVATORCOREFLR1 ZN,hourly; !- [J]
Output:Meter:Cumulative,Heating:EnergyTransfer:Zone:ELEVATORCOREFLR1 ZN,hourly; !- [J]
Output:Meter,Cooling:EnergyTransfer:Zone:ELEVATORCOREFLR1 ZN,hourly; !- [J]
Output:Meter:Cumulative,Cooling:EnergyTransfer:Zone:ELEVATORCOREFLR1 ZN,hourly; !- [J]
Output:Meter,EnergyTransfer:Zone:ELEVATORCOREFLR2 ZN,hourly; !- [J]
Output:Meter:Cumulative,EnergyTransfer:Zone:ELEVATORCOREFLR2 ZN,hourly; !- [J]
Output:Meter,Heating:EnergyTransfer:Zone:ELEVATORCOREFLR2 ZN,hourly; !- [J]
Output:Meter:Cumulative,Heating:EnergyTransfer:Zone:ELEVATORCOREFLR2 ZN,hourly; !- [J]
Output:Meter,Cooling:EnergyTransfer:Zone:ELEVATORCOREFLR2 ZN,hourly; !- [J]
Output:Meter:Cumulative,Cooling:EnergyTransfer:Zone:ELEVATORCOREFLR2 ZN,hourly; !- [J]
Output:Meter,EnergyTransfer:Zone:ELEVATORCOREFLR3 ZN,hourly; !- [J]
Output:Meter:Cumulative,EnergyTransfer:Zone:ELEVATORCOREFLR3 ZN,hourly; !- [J]
Output:Meter,Heating:EnergyTransfer:Zone:ELEVATORCOREFLR3 ZN,hourly; !- [J]
Output:Meter:Cumulative,Heating:EnergyTransfer:Zone:ELEVATORCOREFLR3 ZN,hourly; !- [J]
Output:Meter,Cooling:EnergyTransfer:Zone:ELEVATORCOREFLR3 ZN,hourly; !- [J]
Output:Meter:Cumulative,Cooling:EnergyTransfer:Zone:ELEVATORCOREFLR3 ZN,hourly; !- [J]
Output:Meter,EnergyTransfer:Zone:ELEVATORCOREFLR4 ZN,hourly; !- [J]
Output:Meter:Cumulative,EnergyTransfer:Zone:ELEVATORCOREFLR4 ZN,hourly; !- [J]
Output:Meter,Heating:EnergyTransfer:Zone:ELEVATORCOREFLR4 ZN,hourly; !- [J]
Output:Meter:Cumulative,Heating:EnergyTransfer:Zone:ELEVATORCOREFLR4 ZN,hourly; !- [J]
Output:Meter,Cooling:EnergyTransfer:Zone:ELEVATORCOREFLR4 ZN,hourly; !- [J]
Output:Meter:Cumulative,Cooling:EnergyTransfer:Zone:ELEVATORCOREFLR4 ZN,hourly; !- [J]
Output:Meter,EnergyTransfer:Zone:EMPLOYEELOUNGEFLR1 ZN,hourly; !- [J]
Output:Meter:Cumulative,EnergyTransfer:Zone:EMPLOYEELOUNGEFLR1 ZN,hourly; !- [J]
Output:Meter,Heating:EnergyTransfer:Zone:EMPLOYEELOUNGEFLR1 ZN,hourly; !- [J]
Output:Meter:Cumulative,Heating:EnergyTransfer:Zone:EMPLOYEELOUNGEFLR1 ZN,hourly; !- [J]
Output:Meter,Cooling:EnergyTransfer:Zone:EMPLOYEELOUNGEFLR1 ZN,hourly; !- [J]
Output:Meter:Cumulative,Cooling:EnergyTransfer:Zone:EMPLOYEELOUNGEFLR1 ZN,hourly; !- [J]
Output:Meter,EnergyTransfer:Zone:EXERCISECENTERFLR1 ZN,hourly; !- [J]
Output:Meter:Cumulative,EnergyTransfer:Zone:EXERCISECENTERFLR1 ZN,hourly; !- [J]
Output:Meter,Heating:EnergyTransfer:Zone:EXERCISECENTERFLR1 ZN,hourly; !- [J]
Output:Meter:Cumulative,Heating:EnergyTransfer:Zone:EXERCISECENTERFLR1 ZN,hourly; !- [J]
Output:Meter,Cooling:EnergyTransfer:Zone:EXERCISECENTERFLR1 ZN,hourly; !- [J]
Output:Meter:Cumulative,Cooling:EnergyTransfer:Zone:EXERCISECENTERFLR1 ZN,hourly; !- [J]
Output:Meter,EnergyTransfer:Zone:FRONTLOUNGEFLR1 ZN,hourly; !- [J]
Output:Meter:Cumulative,EnergyTransfer:Zone:FRONTLOUNGEFLR1 ZN,hourly; !- [J]
Output:Meter,Heating:EnergyTransfer:Zone:FRONTLOUNGEFLR1 ZN,hourly; !- [J]
Output:Meter:Cumulative,Heating:EnergyTransfer:Zone:FRONTLOUNGEFLR1 ZN,hourly; !- [J]
Output:Meter,Cooling:EnergyTransfer:Zone:FRONTLOUNGEFLR1 ZN,hourly; !- [J]
Output:Meter:Cumulative,Cooling:EnergyTransfer:Zone:FRONTLOUNGEFLR1 ZN,hourly; !- [J]
Output:Meter,EnergyTransfer:Zone:FRONTOFFICEFLR1 ZN,hourly; !- [J]
Output:Meter:Cumulative,EnergyTransfer:Zone:FRONTOFFICEFLR1 ZN,hourly; !- [J]
Output:Meter,Heating:EnergyTransfer:Zone:FRONTOFFICEFLR1 ZN,hourly; !- [J]
Output:Meter:Cumulative,Heating:EnergyTransfer:Zone:FRONTOFFICEFLR1 ZN,hourly; !- [J]
Output:Meter,Cooling:EnergyTransfer:Zone:FRONTOFFICEFLR1 ZN,hourly; !- [J]
Output:Meter:Cumulative,Cooling:EnergyTransfer:Zone:FRONTOFFICEFLR1 ZN,hourly; !- [J]
Output:Meter,EnergyTransfer:Zone:FRONTSTAIRSFLR1 ZN,hourly; !- [J]
Output:Meter:Cumulative,EnergyTransfer:Zone:FRONTSTAIRSFLR1 ZN,hourly; !- [J]
Output:Meter,Heating:EnergyTransfer:Zone:FRONTSTAIRSFLR1 ZN,hourly; !- [J]
Output:Meter:Cumulative,Heating:EnergyTransfer:Zone:FRONTSTAIRSFLR1 ZN,hourly; !- [J]
Output:Meter,Cooling:EnergyTransfer:Zone:FRONTSTAIRSFLR1 ZN,hourly; !- [J]
Output:Meter:Cumulative,Cooling:EnergyTransfer:Zone:FRONTSTAIRSFLR1 ZN,hourly; !- [J]
Output:Meter,EnergyTransfer:Zone:FRONTSTAIRSFLR2 ZN,hourly; !- [J]
Output:Meter:Cumulative,EnergyTransfer:Zone:FRONTSTAIRSFLR2 ZN,hourly; !- [J]
Output:Meter,Heating:EnergyTransfer:Zone:FRONTSTAIRSFLR2 ZN,hourly; !- [J]
Output:Meter:Cumulative,Heating:EnergyTransfer:Zone:FRONTSTAIRSFLR2 ZN,hourly; !- [J]
Output:Meter,Cooling:EnergyTransfer:Zone:FRONTSTAIRSFLR2 ZN,hourly; !- [J]
Output:Meter:Cumulative,Cooling:EnergyTransfer:Zone:FRONTSTAIRSFLR2 ZN,hourly; !- [J]
Output:Meter,EnergyTransfer:Zone:FRONTSTAIRSFLR3 ZN,hourly; !- [J]
Output:Meter:Cumulative,EnergyTransfer:Zone:FRONTSTAIRSFLR3 ZN,hourly; !- [J]
Output:Meter,Heating:EnergyTransfer:Zone:FRONTSTAIRSFLR3 ZN,hourly; !- [J]
Output:Meter:Cumulative,Heating:EnergyTransfer:Zone:FRONTSTAIRSFLR3 ZN,hourly; !- [J]
Output:Meter,Cooling:EnergyTransfer:Zone:FRONTSTAIRSFLR3 ZN,hourly; !- [J]
Output:Meter:Cumulative,Cooling:EnergyTransfer:Zone:FRONTSTAIRSFLR3 ZN,hourly; !- [J]
Output:Meter,EnergyTransfer:Zone:FRONTSTAIRSFLR4 ZN,hourly; !- [J]
Output:Meter:Cumulative,EnergyTransfer:Zone:FRONTSTAIRSFLR4 ZN,hourly; !- [J]
Output:Meter,Heating:EnergyTransfer:Zone:FRONTSTAIRSFLR4 ZN,hourly; !- [J]
Output:Meter:Cumulative,Heating:EnergyTransfer:Zone:FRONTSTAIRSFLR4 ZN,hourly; !- [J]
Output:Meter,Cooling:EnergyTransfer:Zone:FRONTSTAIRSFLR4 ZN,hourly; !- [J]
Output:Meter:Cumulative,Cooling:EnergyTransfer:Zone:FRONTSTAIRSFLR4 ZN,hourly; !- [J]
Output:Meter,EnergyTransfer:Zone:FRONTSTORAGEFLR1 ZN,hourly; !- [J]
Output:Meter:Cumulative,EnergyTransfer:Zone:FRONTSTORAGEFLR1 ZN,hourly; !- [J]
Output:Meter,Heating:EnergyTransfer:Zone:FRONTSTORAGEFLR1 ZN,hourly; !- [J]
Output:Meter:Cumulative,Heating:EnergyTransfer:Zone:FRONTSTORAGEFLR1 ZN,hourly; !- [J]
Output:Meter,Cooling:EnergyTransfer:Zone:FRONTSTORAGEFLR1 ZN,hourly; !- [J]
Output:Meter:Cumulative,Cooling:EnergyTransfer:Zone:FRONTSTORAGEFLR1 ZN,hourly; !- [J]
Output:Meter,EnergyTransfer:Zone:FRONTSTORAGEFLR2 ZN,hourly; !- [J]
Output:Meter:Cumulative,EnergyTransfer:Zone:FRONTSTORAGEFLR2 ZN,hourly; !- [J]
Output:Meter,Heating:EnergyTransfer:Zone:FRONTSTORAGEFLR2 ZN,hourly; !- [J]
Output:Meter:Cumulative,Heating:EnergyTransfer:Zone:FRONTSTORAGEFLR2 ZN,hourly; !- [J]
Output:Meter,Cooling:EnergyTransfer:Zone:FRONTSTORAGEFLR2 ZN,hourly; !- [J]
Output:Meter:Cumulative,Cooling:EnergyTransfer:Zone:FRONTSTORAGEFLR2 ZN,hourly; !- [J]
Output:Meter,EnergyTransfer:Zone:FRONTSTORAGEFLR3 ZN,hourly; !- [J]
Output:Meter:Cumulative,EnergyTransfer:Zone:FRONTSTORAGEFLR3 ZN,hourly; !- [J]
Output:Meter,Heating:EnergyTransfer:Zone:FRONTSTORAGEFLR3 ZN,hourly; !- [J]
Output:Meter:Cumulative,Heating:EnergyTransfer:Zone:FRONTSTORAGEFLR3 ZN,hourly; !- [J]
Output:Meter,Cooling:EnergyTransfer:Zone:FRONTSTORAGEFLR3 ZN,hourly; !- [J]
Output:Meter:Cumulative,Cooling:EnergyTransfer:Zone:FRONTSTORAGEFLR3 ZN,hourly; !- [J]
Output:Meter,EnergyTransfer:Zone:FRONTSTORAGEFLR4 ZN,hourly; !- [J]
Output:Meter:Cumulative,EnergyTransfer:Zone:FRONTSTORAGEFLR4 ZN,hourly; !- [J]
Output:Meter,Heating:EnergyTransfer:Zone:FRONTSTORAGEFLR4 ZN,hourly; !- [J]
Output:Meter:Cumulative,Heating:EnergyTransfer:Zone:FRONTSTORAGEFLR4 ZN,hourly; !- [J]
Output:Meter,Cooling:EnergyTransfer:Zone:FRONTSTORAGEFLR4 ZN,hourly; !- [J]
Output:Meter:Cumulative,Cooling:EnergyTransfer:Zone:FRONTSTORAGEFLR4 ZN,hourly; !- [J]
Output:Meter,EnergyTransfer:Zone:GUESTROOM101 ZN,hourly; !- [J]
Output:Meter:Cumulative,EnergyTransfer:Zone:GUESTROOM101 ZN,hourly; !- [J]
Output:Meter,Heating:EnergyTransfer:Zone:GUESTROOM101 ZN,hourly; !- [J]
Output:Meter:Cumulative,Heating:EnergyTransfer:Zone:GUESTROOM101 ZN,hourly; !- [J]
Output:Meter,Cooling:EnergyTransfer:Zone:GUESTROOM101 ZN,hourly; !- [J]
Output:Meter:Cumulative,Cooling:EnergyTransfer:Zone:GUESTROOM101 ZN,hourly; !- [J]
Output:Meter,EnergyTransfer:Zone:GUESTROOM102 ZN,hourly; !- [J]
Output:Meter:Cumulative,EnergyTransfer:Zone:GUESTROOM102 ZN,hourly; !- [J]
Output:Meter,Heating:EnergyTransfer:Zone:GUESTROOM102 ZN,hourly; !- [J]
Output:Meter:Cumulative,Heating:EnergyTransfer:Zone:GUESTROOM102 ZN,hourly; !- [J]
Output:Meter,Cooling:EnergyTransfer:Zone:GUESTROOM102 ZN,hourly; !- [J]
Output:Meter:Cumulative,Cooling:EnergyTransfer:Zone:GUESTROOM102 ZN,hourly; !- [J]
Output:Meter,EnergyTransfer:Zone:GUESTROOM103 ZN,hourly; !- [J]
Output:Meter:Cumulative,EnergyTransfer:Zone:GUESTROOM103 ZN,hourly; !- [J]
Output:Meter,Heating:EnergyTransfer:Zone:GUESTROOM103 ZN,hourly; !- [J]
Output:Meter:Cumulative,Heating:EnergyTransfer:Zone:GUESTROOM103 ZN,hourly; !- [J]
Output:Meter,Cooling:EnergyTransfer:Zone:GUESTROOM103 ZN,hourly; !- [J]
Output:Meter:Cumulative,Cooling:EnergyTransfer:Zone:GUESTROOM103 ZN,hourly; !- [J]
Output:Meter,EnergyTransfer:Zone:GUESTROOM104 ZN,hourly; !- [J]
Output:Meter:Cumulative,EnergyTransfer:Zone:GUESTROOM104 ZN,hourly; !- [J]
Output:Meter,Heating:EnergyTransfer:Zone:GUESTROOM104 ZN,hourly; !- [J]
Output:Meter:Cumulative,Heating:EnergyTransfer:Zone:GUESTROOM104 ZN,hourly; !- [J]
Output:Meter,Cooling:EnergyTransfer:Zone:GUESTROOM104 ZN,hourly; !- [J]
Output:Meter:Cumulative,Cooling:EnergyTransfer:Zone:GUESTROOM104 ZN,hourly; !- [J]
Output:Meter,EnergyTransfer:Zone:GUESTROOM105 ZN,hourly; !- [J]
Output:Meter:Cumulative,EnergyTransfer:Zone:GUESTROOM105 ZN,hourly; !- [J]
Output:Meter,Heating:EnergyTransfer:Zone:GUESTROOM105 ZN,hourly; !- [J]
Output:Meter:Cumulative,Heating:EnergyTransfer:Zone:GUESTROOM105 ZN,hourly; !- [J]
Output:Meter,Cooling:EnergyTransfer:Zone:GUESTROOM105 ZN,hourly; !- [J]
Output:Meter:Cumulative,Cooling:EnergyTransfer:Zone:GUESTROOM105 ZN,hourly; !- [J]
Output:Meter,EnergyTransfer:Zone:GUESTROOM201 ZN,hourly; !- [J]
Output:Meter:Cumulative,EnergyTransfer:Zone:GUESTROOM201 ZN,hourly; !- [J]
Output:Meter,Heating:EnergyTransfer:Zone:GUESTROOM201 ZN,hourly; !- [J]
Output:Meter:Cumulative,Heating:EnergyTransfer:Zone:GUESTROOM201 ZN,hourly; !- [J]
Output:Meter,Cooling:EnergyTransfer:Zone:GUESTROOM201 ZN,hourly; !- [J]
Output:Meter:Cumulative,Cooling:EnergyTransfer:Zone:GUESTROOM201 ZN,hourly; !- [J]
Output:Meter,EnergyTransfer:Zone:GUESTROOM202_205 ZN,hourly; !- [J]
Output:Meter:Cumulative,EnergyTransfer:Zone:GUESTROOM202_205 ZN,hourly; !- [J]
Output:Meter,Heating:EnergyTransfer:Zone:GUESTROOM202_205 ZN,hourly; !- [J]
Output:Meter:Cumulative,Heating:EnergyTransfer:Zone:GUESTROOM202_205 ZN,hourly; !- [J]
Output:Meter,Cooling:EnergyTransfer:Zone:GUESTROOM202_205 ZN,hourly; !- [J]
Output:Meter:Cumulative,Cooling:EnergyTransfer:Zone:GUESTROOM202_205 ZN,hourly; !- [J]
Output:Meter,EnergyTransfer:Zone:GUESTROOM206_208 ZN,hourly; !- [J]
Output:Meter:Cumulative,EnergyTransfer:Zone:GUESTROOM206_208 ZN,hourly; !- [J]
Output:Meter,Heating:EnergyTransfer:Zone:GUESTROOM206_208 ZN,hourly; !- [J]
Output:Meter:Cumulative,Heating:EnergyTransfer:Zone:GUESTROOM206_208 ZN,hourly; !- [J]
Output:Meter,Cooling:EnergyTransfer:Zone:GUESTROOM206_208 ZN,hourly; !- [J]
Output:Meter:Cumulative,Cooling:EnergyTransfer:Zone:GUESTROOM206_208 ZN,hourly; !- [J]
Output:Meter,EnergyTransfer:Zone:GUESTROOM209_212 ZN,hourly; !- [J]
Output:Meter:Cumulative,EnergyTransfer:Zone:GUESTROOM209_212 ZN,hourly; !- [J]
Output:Meter,Heating:EnergyTransfer:Zone:GUESTROOM209_212 ZN,hourly; !- [J]
Output:Meter:Cumulative,Heating:EnergyTransfer:Zone:GUESTROOM209_212 ZN,hourly; !- [J]
Output:Meter,Cooling:EnergyTransfer:Zone:GUESTROOM209_212 ZN,hourly; !- [J]
Output:Meter:Cumulative,Cooling:EnergyTransfer:Zone:GUESTROOM209_212 ZN,hourly; !- [J]
Output:Meter,EnergyTransfer:Zone:GUESTROOM213 ZN,hourly; !- [J]
Output:Meter:Cumulative,EnergyTransfer:Zone:GUESTROOM213 ZN,hourly; !- [J]
Output:Meter,Heating:EnergyTransfer:Zone:GUESTROOM213 ZN,hourly; !- [J]
Output:Meter:Cumulative,Heating:EnergyTransfer:Zone:GUESTROOM213 ZN,hourly; !- [J]
Output:Meter,Cooling:EnergyTransfer:Zone:GUESTROOM213 ZN,hourly; !- [J]
Output:Meter:Cumulative,Cooling:EnergyTransfer:Zone:GUESTROOM213 ZN,hourly; !- [J]
Output:Meter,EnergyTransfer:Zone:GUESTROOM214 ZN,hourly; !- [J]
Output:Meter:Cumulative,EnergyTransfer:Zone:GUESTROOM214 ZN,hourly; !- [J]
Output:Meter,Heating:EnergyTransfer:Zone:GUESTROOM214 ZN,hourly; !- [J]
Output:Meter:Cumulative,Heating:EnergyTransfer:Zone:GUESTROOM214 ZN,hourly; !- [J]
Output:Meter,Cooling:EnergyTransfer:Zone:GUESTROOM214 ZN,hourly; !- [J]
Output:Meter:Cumulative,Cooling:EnergyTransfer:Zone:GUESTROOM214 ZN,hourly; !- [J]
Output:Meter,EnergyTransfer:Zone:GUESTROOM215_218 ZN,hourly; !- [J]
Output:Meter:Cumulative,EnergyTransfer:Zone:GUESTROOM215_218 ZN,hourly; !- [J]
Output:Meter,Heating:EnergyTransfer:Zone:GUESTROOM215_218 ZN,hourly; !- [J]
Output:Meter:Cumulative,Heating:EnergyTransfer:Zone:GUESTROOM215_218 ZN,hourly; !- [J]
Output:Meter,Cooling:EnergyTransfer:Zone:GUESTROOM215_218 ZN,hourly; !- [J]
Output:Meter:Cumulative,Cooling:EnergyTransfer:Zone:GUESTROOM215_218 ZN,hourly; !- [J]
Output:Meter,EnergyTransfer:Zone:GUESTROOM219 ZN,hourly; !- [J]
Output:Meter:Cumulative,EnergyTransfer:Zone:GUESTROOM219 ZN,hourly; !- [J]
Output:Meter,Heating:EnergyTransfer:Zone:GUESTROOM219 ZN,hourly; !- [J]
Output:Meter:Cumulative,Heating:EnergyTransfer:Zone:GUESTROOM219 ZN,hourly; !- [J]
Output:Meter,Cooling:EnergyTransfer:Zone:GUESTROOM219 ZN,hourly; !- [J]
Output:Meter:Cumulative,Cooling:EnergyTransfer:Zone:GUESTROOM219 ZN,hourly; !- [J]
Output:Meter,EnergyTransfer:Zone:GUESTROOM220_223 ZN,hourly; !- [J]
Output:Meter:Cumulative,EnergyTransfer:Zone:GUESTROOM220_223 ZN,hourly; !- [J]
Output:Meter,Heating:EnergyTransfer:Zone:GUESTROOM220_223 ZN,hourly; !- [J]
Output:Meter:Cumulative,Heating:EnergyTransfer:Zone:GUESTROOM220_223 ZN,hourly; !- [J]
Output:Meter,Cooling:EnergyTransfer:Zone:GUESTROOM220_223 ZN,hourly; !- [J]
Output:Meter:Cumulative,Cooling:EnergyTransfer:Zone:GUESTROOM220_223 ZN,hourly; !- [J]
Output:Meter,EnergyTransfer:Zone:GUESTROOM224 ZN,hourly; !- [J]
Output:Meter:Cumulative,EnergyTransfer:Zone:GUESTROOM224 ZN,hourly; !- [J]
Output:Meter,Heating:EnergyTransfer:Zone:GUESTROOM224 ZN,hourly; !- [J]
Output:Meter:Cumulative,Heating:EnergyTransfer:Zone:GUESTROOM224 ZN,hourly; !- [J]
Output:Meter,Cooling:EnergyTransfer:Zone:GUESTROOM224 ZN,hourly; !- [J]
Output:Meter:Cumulative,Cooling:EnergyTransfer:Zone:GUESTROOM224 ZN,hourly; !- [J]
Output:Meter,EnergyTransfer:Zone:GUESTROOM301 ZN,hourly; !- [J]
Output:Meter:Cumulative,EnergyTransfer:Zone:GUESTROOM301 ZN,hourly; !- [J]
Output:Meter,Heating:EnergyTransfer:Zone:GUESTROOM301 ZN,hourly; !- [J]
Output:Meter:Cumulative,Heating:EnergyTransfer:Zone:GUESTROOM301 ZN,hourly; !- [J]
Output:Meter,Cooling:EnergyTransfer:Zone:GUESTROOM301 ZN,hourly; !- [J]
Output:Meter:Cumulative,Cooling:EnergyTransfer:Zone:GUESTROOM301 ZN,hourly; !- [J]
Output:Meter,EnergyTransfer:Zone:GUESTROOM302_305 ZN,hourly; !- [J]
Output:Meter:Cumulative,EnergyTransfer:Zone:GUESTROOM302_305 ZN,hourly; !- [J]
Output:Meter,Heating:EnergyTransfer:Zone:GUESTROOM302_305 ZN,hourly; !- [J]
Output:Meter:Cumulative,Heating:EnergyTransfer:Zone:GUESTROOM302_305 ZN,hourly; !- [J]
Output:Meter,Cooling:EnergyTransfer:Zone:GUESTROOM302_305 ZN,hourly; !- [J]
Output:Meter:Cumulative,Cooling:EnergyTransfer:Zone:GUESTROOM302_305 ZN,hourly; !- [J]
Output:Meter,EnergyTransfer:Zone:GUESTROOM306_308 ZN,hourly; !- [J]
Output:Meter:Cumulative,EnergyTransfer:Zone:GUESTROOM306_308 ZN,hourly; !- [J]
Output:Meter,Heating:EnergyTransfer:Zone:GUESTROOM306_308 ZN,hourly; !- [J]
Output:Meter:Cumulative,Heating:EnergyTransfer:Zone:GUESTROOM306_308 ZN,hourly; !- [J]
Output:Meter,Cooling:EnergyTransfer:Zone:GUESTROOM306_308 ZN,hourly; !- [J]
Output:Meter:Cumulative,Cooling:EnergyTransfer:Zone:GUESTROOM306_308 ZN,hourly; !- [J]
Output:Meter,EnergyTransfer:Zone:GUESTROOM309_312 ZN,hourly; !- [J]
Output:Meter:Cumulative,EnergyTransfer:Zone:GUESTROOM309_312 ZN,hourly; !- [J]
Output:Meter,Heating:EnergyTransfer:Zone:GUESTROOM309_312 ZN,hourly; !- [J]
Output:Meter:Cumulative,Heating:EnergyTransfer:Zone:GUESTROOM309_312 ZN,hourly; !- [J]
Output:Meter,Cooling:EnergyTransfer:Zone:GUESTROOM309_312 ZN,hourly; !- [J]
Output:Meter:Cumulative,Cooling:EnergyTransfer:Zone:GUESTROOM309_312 ZN,hourly; !- [J]
Output:Meter,EnergyTransfer:Zone:GUESTROOM313 ZN,hourly; !- [J]
Output:Meter:Cumulative,EnergyTransfer:Zone:GUESTROOM313 ZN,hourly; !- [J]
Output:Meter,Heating:EnergyTransfer:Zone:GUESTROOM313 ZN,hourly; !- [J]
Output:Meter:Cumulative,Heating:EnergyTransfer:Zone:GUESTROOM313 ZN,hourly; !- [J]
Output:Meter,Cooling:EnergyTransfer:Zone:GUESTROOM313 ZN,hourly; !- [J]
Output:Meter:Cumulative,Cooling:EnergyTransfer:Zone:GUESTROOM313 ZN,hourly; !- [J]
Output:Meter,EnergyTransfer:Zone:GUESTROOM314 ZN,hourly; !- [J]
Output:Meter:Cumulative,EnergyTransfer:Zone:GUESTROOM314 ZN,hourly; !- [J]
Output:Meter,Heating:EnergyTransfer:Zone:GUESTROOM314 ZN,hourly; !- [J]
Output:Meter:Cumulative,Heating:EnergyTransfer:Zone:GUESTROOM314 ZN,hourly; !- [J]
Output:Meter,Cooling:EnergyTransfer:Zone:GUESTROOM314 ZN,hourly; !- [J]
Output:Meter:Cumulative,Cooling:EnergyTransfer:Zone:GUESTROOM314 ZN,hourly; !- [J]
Output:Meter,EnergyTransfer:Zone:GUESTROOM315_318 ZN,hourly; !- [J]
Output:Meter:Cumulative,EnergyTransfer:Zone:GUESTROOM315_318 ZN,hourly; !- [J]
Output:Meter,Heating:EnergyTransfer:Zone:GUESTROOM315_318 ZN,hourly; !- [J]
Output:Meter:Cumulative,Heating:EnergyTransfer:Zone:GUESTROOM315_318 ZN,hourly; !- [J]
Output:Meter,Cooling:EnergyTransfer:Zone:GUESTROOM315_318 ZN,hourly; !- [J]
Output:Meter:Cumulative,Cooling:EnergyTransfer:Zone:GUESTROOM315_318 ZN,hourly; !- [J]
Output:Meter,EnergyTransfer:Zone:GUESTROOM319 ZN,hourly; !- [J]
Output:Meter:Cumulative,EnergyTransfer:Zone:GUESTROOM319 ZN,hourly; !- [J]
Output:Meter,Heating:EnergyTransfer:Zone:GUESTROOM319 ZN,hourly; !- [J]
Output:Meter:Cumulative,Heating:EnergyTransfer:Zone:GUESTROOM319 ZN,hourly; !- [J]
Output:Meter,Cooling:EnergyTransfer:Zone:GUESTROOM319 ZN,hourly; !- [J]
Output:Meter:Cumulative,Cooling:EnergyTransfer:Zone:GUESTROOM319 ZN,hourly; !- [J]
Output:Meter,EnergyTransfer:Zone:GUESTROOM320_323 ZN,hourly; !- [J]
Output:Meter:Cumulative,EnergyTransfer:Zone:GUESTROOM320_323 ZN,hourly; !- [J]
Output:Meter,Heating:EnergyTransfer:Zone:GUESTROOM320_323 ZN,hourly; !- [J]
Output:Meter:Cumulative,Heating:EnergyTransfer:Zone:GUESTROOM320_323 ZN,hourly; !- [J]
Output:Meter,Cooling:EnergyTransfer:Zone:GUESTROOM320_323 ZN,hourly; !- [J]
Output:Meter:Cumulative,Cooling:EnergyTransfer:Zone:GUESTROOM320_323 ZN,hourly; !- [J]
Output:Meter,EnergyTransfer:Zone:GUESTROOM324 ZN,hourly; !- [J]
Output:Meter:Cumulative,EnergyTransfer:Zone:GUESTROOM324 ZN,hourly; !- [J]
Output:Meter,Heating:EnergyTransfer:Zone:GUESTROOM324 ZN,hourly; !- [J]
Output:Meter:Cumulative,Heating:EnergyTransfer:Zone:GUESTROOM324 ZN,hourly; !- [J]
Output:Meter,Cooling:EnergyTransfer:Zone:GUESTROOM324 ZN,hourly; !- [J]
Output:Meter:Cumulative,Cooling:EnergyTransfer:Zone:GUESTROOM324 ZN,hourly; !- [J]
Output:Meter,EnergyTransfer:Zone:GUESTROOM401 ZN,hourly; !- [J]
Output:Meter:Cumulative,EnergyTransfer:Zone:GUESTROOM401 ZN,hourly; !- [J]
Output:Meter,Heating:EnergyTransfer:Zone:GUESTROOM401 ZN,hourly; !- [J]
Output:Meter:Cumulative,Heating:EnergyTransfer:Zone:GUESTROOM401 ZN,hourly; !- [J]
Output:Meter,Cooling:EnergyTransfer:Zone:GUESTROOM401 ZN,hourly; !- [J]
Output:Meter:Cumulative,Cooling:EnergyTransfer:Zone:GUESTROOM401 ZN,hourly; !- [J]
Output:Meter,EnergyTransfer:Zone:GUESTROOM402_405 ZN,hourly; !- [J]
Output:Meter:Cumulative,EnergyTransfer:Zone:GUESTROOM402_405 ZN,hourly; !- [J]
Output:Meter,Heating:EnergyTransfer:Zone:GUESTROOM402_405 ZN,hourly; !- [J]
Output:Meter:Cumulative,Heating:EnergyTransfer:Zone:GUESTROOM402_405 ZN,hourly; !- [J]
Output:Meter,Cooling:EnergyTransfer:Zone:GUESTROOM402_405 ZN,hourly; !- [J]
Output:Meter:Cumulative,Cooling:EnergyTransfer:Zone:GUESTROOM402_405 ZN,hourly; !- [J]
Output:Meter,EnergyTransfer:Zone:GUESTROOM406_408 ZN,hourly; !- [J]
Output:Meter:Cumulative,EnergyTransfer:Zone:GUESTROOM406_408 ZN,hourly; !- [J]
Output:Meter,Heating:EnergyTransfer:Zone:GUESTROOM406_408 ZN,hourly; !- [J]
Output:Meter:Cumulative,Heating:EnergyTransfer:Zone:GUESTROOM406_408 ZN,hourly; !- [J]
Output:Meter,Cooling:EnergyTransfer:Zone:GUESTROOM406_408 ZN,hourly; !- [J]
Output:Meter:Cumulative,Cooling:EnergyTransfer:Zone:GUESTROOM406_408 ZN,hourly; !- [J]
Output:Meter,EnergyTransfer:Zone:GUESTROOM409_412 ZN,hourly; !- [J]
Output:Meter:Cumulative,EnergyTransfer:Zone:GUESTROOM409_412 ZN,hourly; !- [J]
Output:Meter,Heating:EnergyTransfer:Zone:GUESTROOM409_412 ZN,hourly; !- [J]
Output:Meter:Cumulative,Heating:EnergyTransfer:Zone:GUESTROOM409_412 ZN,hourly; !- [J]
Output:Meter,Cooling:EnergyTransfer:Zone:GUESTROOM409_412 ZN,hourly; !- [J]
Output:Meter:Cumulative,Cooling:EnergyTransfer:Zone:GUESTROOM409_412 ZN,hourly; !- [J]
Output:Meter,EnergyTransfer:Zone:GUESTROOM413 ZN,hourly; !- [J]
Output:Meter:Cumulative,EnergyTransfer:Zone:GUESTROOM413 ZN,hourly; !- [J]
Output:Meter,Heating:EnergyTransfer:Zone:GUESTROOM413 ZN,hourly; !- [J]
Output:Meter:Cumulative,Heating:EnergyTransfer:Zone:GUESTROOM413 ZN,hourly; !- [J]
Output:Meter,Cooling:EnergyTransfer:Zone:GUESTROOM413 ZN,hourly; !- [J]
Output:Meter:Cumulative,Cooling:EnergyTransfer:Zone:GUESTROOM413 ZN,hourly; !- [J]
Output:Meter,EnergyTransfer:Zone:GUESTROOM414 ZN,hourly; !- [J]
Output:Meter:Cumulative,EnergyTransfer:Zone:GUESTROOM414 ZN,hourly; !- [J]
Output:Meter,Heating:EnergyTransfer:Zone:GUESTROOM414 ZN,hourly; !- [J]
Output:Meter:Cumulative,Heating:EnergyTransfer:Zone:GUESTROOM414 ZN,hourly; !- [J]
Output:Meter,Cooling:EnergyTransfer:Zone:GUESTROOM414 ZN,hourly; !- [J]
Output:Meter:Cumulative,Cooling:EnergyTransfer:Zone:GUESTROOM414 ZN,hourly; !- [J]
Output:Meter,EnergyTransfer:Zone:GUESTROOM415_418 ZN,hourly; !- [J]
Output:Meter:Cumulative,EnergyTransfer:Zone:GUESTROOM415_418 ZN,hourly; !- [J]
Output:Meter,Heating:EnergyTransfer:Zone:GUESTROOM415_418 ZN,hourly; !- [J]
Output:Meter:Cumulative,Heating:EnergyTransfer:Zone:GUESTROOM415_418 ZN,hourly; !- [J]
Output:Meter,Cooling:EnergyTransfer:Zone:GUESTROOM415_418 ZN,hourly; !- [J]
Output:Meter:Cumulative,Cooling:EnergyTransfer:Zone:GUESTROOM415_418 ZN,hourly; !- [J]
Output:Meter,EnergyTransfer:Zone:GUESTROOM419 ZN,hourly; !- [J]
Output:Meter:Cumulative,EnergyTransfer:Zone:GUESTROOM419 ZN,hourly; !- [J]
Output:Meter,Heating:EnergyTransfer:Zone:GUESTROOM419 ZN,hourly; !- [J]
Output:Meter:Cumulative,Heating:EnergyTransfer:Zone:GUESTROOM419 ZN,hourly; !- [J]
Output:Meter,Cooling:EnergyTransfer:Zone:GUESTROOM419 ZN,hourly; !- [J]
Output:Meter:Cumulative,Cooling:EnergyTransfer:Zone:GUESTROOM419 ZN,hourly; !- [J]
Output:Meter,EnergyTransfer:Zone:GUESTROOM420_423 ZN,hourly; !- [J]
Output:Meter:Cumulative,EnergyTransfer:Zone:GUESTROOM420_423 ZN,hourly; !- [J]
Output:Meter,Heating:EnergyTransfer:Zone:GUESTROOM420_423 ZN,hourly; !- [J]
Output:Meter:Cumulative,Heating:EnergyTransfer:Zone:GUESTROOM420_423 ZN,hourly; !- [J]
Output:Meter,Cooling:EnergyTransfer:Zone:GUESTROOM420_423 ZN,hourly; !- [J]
Output:Meter:Cumulative,Cooling:EnergyTransfer:Zone:GUESTROOM420_423 ZN,hourly; !- [J]
Output:Meter,EnergyTransfer:Zone:GUESTROOM424 ZN,hourly; !- [J]
Output:Meter:Cumulative,EnergyTransfer:Zone:GUESTROOM424 ZN,hourly; !- [J]
Output:Meter,Heating:EnergyTransfer:Zone:GUESTROOM424 ZN,hourly; !- [J]
Output:Meter:Cumulative,Heating:EnergyTransfer:Zone:GUESTROOM424 ZN,hourly; !- [J]
Output:Meter,Cooling:EnergyTransfer:Zone:GUESTROOM424 ZN,hourly; !- [J]
Output:Meter:Cumulative,Cooling:EnergyTransfer:Zone:GUESTROOM424 ZN,hourly; !- [J]
Output:Meter,EnergyTransfer:Zone:LAUNDRYROOMFLR1 ZN,hourly; !- [J]
Output:Meter:Cumulative,EnergyTransfer:Zone:LAUNDRYROOMFLR1 ZN,hourly; !- [J]
Output:Meter,Heating:EnergyTransfer:Zone:LAUNDRYROOMFLR1 ZN,hourly; !- [J]
Output:Meter:Cumulative,Heating:EnergyTransfer:Zone:LAUNDRYROOMFLR1 ZN,hourly; !- [J]
Output:Meter,Cooling:EnergyTransfer:Zone:LAUNDRYROOMFLR1 ZN,hourly; !- [J]
Output:Meter:Cumulative,Cooling:EnergyTransfer:Zone:LAUNDRYROOMFLR1 ZN,hourly; !- [J]
Output:Meter,EnergyTransfer:Zone:MECHANICALROOMFLR1 ZN,hourly; !- [J]
Output:Meter:Cumulative,EnergyTransfer:Zone:MECHANICALROOMFLR1 ZN,hourly; !- [J]
Output:Meter,Heating:EnergyTransfer:Zone:MECHANICALROOMFLR1 ZN,hourly; !- [J]
Output:Meter:Cumulative,Heating:EnergyTransfer:Zone:MECHANICALROOMFLR1 ZN,hourly; !- [J]
Output:Meter,Cooling:EnergyTransfer:Zone:MECHANICALROOMFLR1 ZN,hourly; !- [J]
Output:Meter:Cumulative,Cooling:EnergyTransfer:Zone:MECHANICALROOMFLR1 ZN,hourly; !- [J]
Output:Meter,EnergyTransfer:Zone:MEETINGROOMFLR1 ZN,hourly; !- [J]
Output:Meter:Cumulative,EnergyTransfer:Zone:MEETINGROOMFLR1 ZN,hourly; !- [J]
Output:Meter,Heating:EnergyTransfer:Zone:MEETINGROOMFLR1 ZN,hourly; !- [J]
Output:Meter:Cumulative,Heating:EnergyTransfer:Zone:MEETINGROOMFLR1 ZN,hourly; !- [J]
Output:Meter,Cooling:EnergyTransfer:Zone:MEETINGROOMFLR1 ZN,hourly; !- [J]
Output:Meter:Cumulative,Cooling:EnergyTransfer:Zone:MEETINGROOMFLR1 ZN,hourly; !- [J]
Output:Meter,EnergyTransfer:Zone:REARSTAIRSFLR1 ZN,hourly; !- [J]
Output:Meter:Cumulative,EnergyTransfer:Zone:REARSTAIRSFLR1 ZN,hourly; !- [J]
Output:Meter,Heating:EnergyTransfer:Zone:REARSTAIRSFLR1 ZN,hourly; !- [J]
Output:Meter:Cumulative,Heating:EnergyTransfer:Zone:REARSTAIRSFLR1 ZN,hourly; !- [J]
Output:Meter,Cooling:EnergyTransfer:Zone:REARSTAIRSFLR1 ZN,hourly; !- [J]
Output:Meter:Cumulative,Cooling:EnergyTransfer:Zone:REARSTAIRSFLR1 ZN,hourly; !- [J]
Output:Meter,EnergyTransfer:Zone:REARSTAIRSFLR2 ZN,hourly; !- [J]
Output:Meter:Cumulative,EnergyTransfer:Zone:REARSTAIRSFLR2 ZN,hourly; !- [J]
Output:Meter,Heating:EnergyTransfer:Zone:REARSTAIRSFLR2 ZN,hourly; !- [J]
Output:Meter:Cumulative,Heating:EnergyTransfer:Zone:REARSTAIRSFLR2 ZN,hourly; !- [J]
Output:Meter,Cooling:EnergyTransfer:Zone:REARSTAIRSFLR2 ZN,hourly; !- [J]
Output:Meter:Cumulative,Cooling:EnergyTransfer:Zone:REARSTAIRSFLR2 ZN,hourly; !- [J]
Output:Meter,EnergyTransfer:Zone:REARSTAIRSFLR3 ZN,hourly; !- [J]
Output:Meter:Cumulative,EnergyTransfer:Zone:REARSTAIRSFLR3 ZN,hourly; !- [J]
Output:Meter,Heating:EnergyTransfer:Zone:REARSTAIRSFLR3 ZN,hourly; !- [J]
Output:Meter:Cumulative,Heating:EnergyTransfer:Zone:REARSTAIRSFLR3 ZN,hourly; !- [J]
Output:Meter,Cooling:EnergyTransfer:Zone:REARSTAIRSFLR3 ZN,hourly; !- [J]
Output:Meter:Cumulative,Cooling:EnergyTransfer:Zone:REARSTAIRSFLR3 ZN,hourly; !- [J]
Output:Meter,EnergyTransfer:Zone:REARSTAIRSFLR4 ZN,hourly; !- [J]
Output:Meter:Cumulative,EnergyTransfer:Zone:REARSTAIRSFLR4 ZN,hourly; !- [J]
Output:Meter,Heating:EnergyTransfer:Zone:REARSTAIRSFLR4 ZN,hourly; !- [J]
Output:Meter:Cumulative,Heating:EnergyTransfer:Zone:REARSTAIRSFLR4 ZN,hourly; !- [J]
Output:Meter,Cooling:EnergyTransfer:Zone:REARSTAIRSFLR4 ZN,hourly; !- [J]
Output:Meter:Cumulative,Cooling:EnergyTransfer:Zone:REARSTAIRSFLR4 ZN,hourly; !- [J]
Output:Meter,EnergyTransfer:Zone:REARSTORAGEFLR1 ZN,hourly; !- [J]
Output:Meter:Cumulative,EnergyTransfer:Zone:REARSTORAGEFLR1 ZN,hourly; !- [J]
Output:Meter,Heating:EnergyTransfer:Zone:REARSTORAGEFLR1 ZN,hourly; !- [J]
Output:Meter:Cumulative,Heating:EnergyTransfer:Zone:REARSTORAGEFLR1 ZN,hourly; !- [J]
Output:Meter,Cooling:EnergyTransfer:Zone:REARSTORAGEFLR1 ZN,hourly; !- [J]
Output:Meter:Cumulative,Cooling:EnergyTransfer:Zone:REARSTORAGEFLR1 ZN,hourly; !- [J]
Output:Meter,EnergyTransfer:Zone:REARSTORAGEFLR2 ZN,hourly; !- [J]
Output:Meter:Cumulative,EnergyTransfer:Zone:REARSTORAGEFLR2 ZN,hourly; !- [J]
Output:Meter,Heating:EnergyTransfer:Zone:REARSTORAGEFLR2 ZN,hourly; !- [J]
Output:Meter:Cumulative,Heating:EnergyTransfer:Zone:REARSTORAGEFLR2 ZN,hourly; !- [J]
Output:Meter,Cooling:EnergyTransfer:Zone:REARSTORAGEFLR2 ZN,hourly; !- [J]
Output:Meter:Cumulative,Cooling:EnergyTransfer:Zone:REARSTORAGEFLR2 ZN,hourly; !- [J]
Output:Meter,EnergyTransfer:Zone:REARSTORAGEFLR3 ZN,hourly; !- [J]
Output:Meter:Cumulative,EnergyTransfer:Zone:REARSTORAGEFLR3 ZN,hourly; !- [J]
Output:Meter,Heating:EnergyTransfer:Zone:REARSTORAGEFLR3 ZN,hourly; !- [J]
Output:Meter:Cumulative,Heating:EnergyTransfer:Zone:REARSTORAGEFLR3 ZN,hourly; !- [J]
Output:Meter,Cooling:EnergyTransfer:Zone:REARSTORAGEFLR3 ZN,hourly; !- [J]
Output:Meter:Cumulative,Cooling:EnergyTransfer:Zone:REARSTORAGEFLR3 ZN,hourly; !- [J]
Output:Meter,EnergyTransfer:Zone:REARSTORAGEFLR4 ZN,hourly; !- [J]
Output:Meter:Cumulative,EnergyTransfer:Zone:REARSTORAGEFLR4 ZN,hourly; !- [J]
Output:Meter,Heating:EnergyTransfer:Zone:REARSTORAGEFLR4 ZN,hourly; !- [J]
Output:Meter:Cumulative,Heating:EnergyTransfer:Zone:REARSTORAGEFLR4 ZN,hourly; !- [J]
Output:Meter,Cooling:EnergyTransfer:Zone:REARSTORAGEFLR4 ZN,hourly; !- [J]
Output:Meter:Cumulative,Cooling:EnergyTransfer:Zone:REARSTORAGEFLR4 ZN,hourly; !- [J]
Output:Meter,EnergyTransfer:Zone:RESTROOMFLR1 ZN,hourly; !- [J]
Output:Meter:Cumulative,EnergyTransfer:Zone:RESTROOMFLR1 ZN,hourly; !- [J]
Output:Meter,Heating:EnergyTransfer:Zone:RESTROOMFLR1 ZN,hourly; !- [J]
Output:Meter:Cumulative,Heating:EnergyTransfer:Zone:RESTROOMFLR1 ZN,hourly; !- [J]
Output:Meter,Cooling:EnergyTransfer:Zone:RESTROOMFLR1 ZN,hourly; !- [J]
Output:Meter:Cumulative,Cooling:EnergyTransfer:Zone:RESTROOMFLR1 ZN,hourly; !- [J]
Output:Meter,EnergyTransfer:Plant,hourly; !- [J]
Output:Meter:Cumulative,EnergyTransfer:Plant,hourly; !- [J]
Output:Meter,WaterSystems:EnergyTransfer,hourly; !- [J]
Output:Meter:Cumulative,WaterSystems:EnergyTransfer,hourly; !- [J]
Output:Meter,General:WaterSystems:EnergyTransfer,hourly; !- [J]
Output:Meter:Cumulative,General:WaterSystems:EnergyTransfer,hourly; !- [J]
Output:Meter,ElectricityPurchased:Facility,hourly; !- [J]
Output:Meter:Cumulative,ElectricityPurchased:Facility,hourly; !- [J]
Output:Meter,ElectricityPurchased:Plant,hourly; !- [J]
Output:Meter:Cumulative,ElectricityPurchased:Plant,hourly; !- [J]
Output:Meter,Cogeneration:ElectricityPurchased,hourly; !- [J]
Output:Meter:Cumulative,Cogeneration:ElectricityPurchased,hourly; !- [J]
Output:Meter,ElectricitySurplusSold:Facility,hourly; !- [J]
Output:Meter:Cumulative,ElectricitySurplusSold:Facility,hourly; !- [J]
Output:Meter,ElectricitySurplusSold:Plant,hourly; !- [J]
Output:Meter:Cumulative,ElectricitySurplusSold:Plant,hourly; !- [J]
Output:Meter,Cogeneration:ElectricitySurplusSold,hourly; !- [J]
Output:Meter:Cumulative,Cogeneration:ElectricitySurplusSold,hourly; !- [J]
Output:Meter,ElectricityNet:Facility,hourly; !- [J]
Output:Meter:Cumulative,ElectricityNet:Facility,hourly; !- [J]
Output:Meter,ElectricityNet:Plant,hourly; !- [J]
Output:Meter:Cumulative,ElectricityNet:Plant,hourly; !- [J]
Output:Meter,Cogeneration:ElectricityNet,hourly; !- [J]
Output:Meter:Cumulative,Cogeneration:ElectricityNet,hourly; !- [J]
Output:Meter,Electricity:HVAC,hourly; !- [J]
Output:Meter:Cumulative,Electricity:HVAC,hourly; !- [J]
Output:Meter,Fans:Electricity,hourly; !- [J]
Output:Meter:Cumulative,Fans:Electricity,hourly; !- [J]
Output:Meter,General:Fans:Electricity,hourly; !- [J]
Output:Meter:Cumulative,General:Fans:Electricity,hourly; !- [J]
Output:Meter,EnergyTransfer:HVAC,hourly; !- [J]
Output:Meter:Cumulative,EnergyTransfer:HVAC,hourly; !- [J]
Output:Meter,HeatingCoils:EnergyTransfer,hourly; !- [J]
Output:Meter:Cumulative,HeatingCoils:EnergyTransfer,hourly; !- [J]
Output:Meter,Heating:Electricity,hourly; !- [J]
Output:Meter:Cumulative,Heating:Electricity,hourly; !- [J]
Output:Meter,Gas:HVAC,hourly; !- [J]
Output:Meter:Cumulative,Gas:HVAC,hourly; !- [J]
Output:Meter,Heating:Gas,hourly; !- [J]
Output:Meter:Cumulative,Heating:Gas,hourly; !- [J]
Output:Meter,CoolingCoils:EnergyTransfer,hourly; !- [J]
Output:Meter:Cumulative,CoolingCoils:EnergyTransfer,hourly; !- [J]
Output:Meter,Cooling:Electricity,hourly; !- [J]
Output:Meter:Cumulative,Cooling:Electricity,hourly; !- [J]
Output:Meter,ExteriorLights:Electricity,hourly; !- [J]
Output:Meter:Cumulative,ExteriorLights:Electricity,hourly; !- [J]
Output:Meter,General:ExteriorLights:Electricity,hourly; !- [J]
Output:Meter:Cumulative,General:ExteriorLights:Electricity,hourly; !- [J]
Output:Meter,Electricity:Plant,hourly; !- [J]
Output:Meter:Cumulative,Electricity:Plant,hourly; !- [J]
Output:Meter,Pumps:Electricity,hourly; !- [J]
Output:Meter:Cumulative,Pumps:Electricity,hourly; !- [J]
Output:Meter,Carbon Equivalent:Facility,hourly; !- [kg]
Output:Meter:Cumulative,Carbon Equivalent:Facility,hourly; !- [kg]
Output:Meter,CarbonEquivalentEmissions:Carbon Equivalent,hourly; !- [kg]
Output:Meter:Cumulative,CarbonEquivalentEmissions:Carbon Equivalent,hourly; !- [kg]
