Program Version,EnergyPlus, Version 8.9.0-497bb3e71c, YMD=2018.06.06 17:05
! <Version>, Version ID
 Version, 8.9
! <Timesteps per Hour>, #TimeSteps, Minutes per TimeStep {minutes}
 Timesteps per Hour,  4, 15
! <System Convergence Limits>, Minimum System TimeStep {minutes}, Max HVAC Iterations, Minimum Plant Iterations, Maximum Plant Iterations
 System Convergence Limits, 1, 20, 2, 8
! <Simulation Control>, Do Zone Sizing, Do System Sizing, Do Plant Sizing, Do Design Days, Do Weather Simulation, Do HVAC Sizing Simulation
 Simulation Control, Yes, Yes, Yes, No, Yes, No
! <Output Reporting Tolerances>, Tolerance for Time Heating Setpoint Not Met, Tolerance for Zone Cooling Setpoint Not Met Time
 Output Reporting Tolerances, 0.200, 0.200, 
! <Site:GroundTemperature:BuildingSurface>,Jan{C},Feb{C},Mar{C},Apr{C},May{C},Jun{C},Jul{C},Aug{C},Sep{C},Oct{C},Nov{C},Dec{C}
 Site:GroundTemperature:BuildingSurface,  19.89,  19.99,  20.06,  20.20,  20.41,  20.60,  20.83,  20.85,  20.72,  20.51,  20.24,  19.99
! <Site:GroundTemperature:FCfactorMethod>,Jan{C},Feb{C},Mar{C},Apr{C},May{C},Jun{C},Jul{C},Aug{C},Sep{C},Oct{C},Nov{C},Dec{C}
 Site:GroundTemperature:FCfactorMethod,  -0.60,   1.34,   5.12,   8.69,  15.46,  19.02,  20.00,  18.20,  14.02,   8.83,   3.71,   0.32
! <Site:GroundTemperature:Shallow>,Jan{C},Feb{C},Mar{C},Apr{C},May{C},Jun{C},Jul{C},Aug{C},Sep{C},Oct{C},Nov{C},Dec{C}
 Site:GroundTemperature:Shallow,  13.00,  13.00,  13.00,  13.00,  13.00,  13.00,  13.00,  13.00,  13.00,  13.00,  13.00,  13.00
! <Site:GroundTemperature:Deep>,Jan{C},Feb{C},Mar{C},Apr{C},May{C},Jun{C},Jul{C},Aug{C},Sep{C},Oct{C},Nov{C},Dec{C}
 Site:GroundTemperature:Deep,  16.00,  16.00,  16.00,  16.00,  16.00,  16.00,  16.00,  16.00,  16.00,  16.00,  16.00,  16.00
! <Site:GroundReflectance>,Jan{dimensionless},Feb{dimensionless},Mar{dimensionless},Apr{dimensionless},May{dimensionless},Jun{dimensionless},Jul{dimensionless},Aug{dimensionless},Sep{dimensionless},Oct{dimensionless},Nov{dimensionless},Dec{dimensionless}
 Site:GroundReflectance,  0.20,  0.20,  0.20,  0.20,  0.20,  0.20,  0.20,  0.20,  0.20,  0.20,  0.20,  0.20
! <Site:GroundReflectance:SnowModifier>, Normal, Daylighting {dimensionless}
 Site:GroundReflectance:SnowModifier,   1.000,   1.000
! <Site:GroundReflectance:Snow>,Jan{dimensionless},Feb{dimensionless},Mar{dimensionless},Apr{dimensionless},May{dimensionless},Jun{dimensionless},Jul{dimensionless},Aug{dimensionless},Sep{dimensionless},Oct{dimensionless},Nov{dimensionless},Dec{dimensionless}
 Site:GroundReflectance:Snow,  0.20,  0.20,  0.20,  0.20,  0.20,  0.20,  0.20,  0.20,  0.20,  0.20,  0.20,  0.20
! <Site:GroundReflectance:Snow:Daylighting>,Jan{dimensionless},Feb{dimensionless},Mar{dimensionless},Apr{dimensionless},May{dimensionless},Jun{dimensionless},Jul{dimensionless},Aug{dimensionless},Sep{dimensionless},Oct{dimensionless},Nov{dimensionless},Dec{dimensionless}
 Site:GroundReflectance:Snow:Daylighting,  0.20,  0.20,  0.20,  0.20,  0.20,  0.20,  0.20,  0.20,  0.20,  0.20,  0.20,  0.20
! <Environment:Weather Station>,Wind Sensor Height Above Ground {m},Wind Speed Profile Exponent {},Wind Speed Profile Boundary Layer Thickness {m},Air Temperature Sensor Height Above Ground {m},Wind Speed Modifier Coefficient-Internal,Temperature Modifier Coefficient-Internal
Environment:Weather Station,10.000,0.140,270.000,1.500,1.586,9.750E-003
! <Site:Location>, Location Name, Latitude {N+/S- Deg}, Longitude {E+/W- Deg},  Time Zone Number {GMT+/-}, Elevation {m},  Standard Pressure at Elevation {Pa}, Standard RhoAir at Elevation
Site:Location,Denver Centennial  Golden   Nr CO USA TMY3 WMO#=724666,39.74,-105.18,-7.00,1829.00,81198,0.9651
! <Building Information>, Building Name,North Axis {deg},Terrain,  Loads Convergence Tolerance Value,Temperature Convergence Tolerance Value,  Solar Distribution,Maximum Number of Warmup Days,Minimum Number of Warmup Days
 Building Information,90.1-2010-SmallHotel-ASHRAE 169-2006-5B created: 2016-10-04 13:28:55 -0600,180.000,Suburbs,4.00000E-002,0.40000,FullExterior,25,6
! <Inside Convection Algorithm>, Algorithm {Simple | TARP | CeilingDiffuser | AdaptiveConvectionAlgorithm}
Inside Convection Algorithm,TARP
! <Outside Convection Algorithm>, Algorithm {SimpleCombined | TARP | MoWitt | DOE-2 | AdaptiveConvectionAlgorithm}
Outside Convection Algorithm,TARP
! <Sky Radiance Distribution>, Value {Anisotropic}
Sky Radiance Distribution,Anisotropic
! <Zone Air Solution Algorithm>, Value {ThirdOrderBackwardDifference | AnalyticalSolution | EulerMethod}
 Zone Air Solution Algorithm, ThirdOrderBackwardDifference
! <Zone Air Carbon Dioxide Balance Simulation>, Simulation {Yes/No}, Carbon Dioxide Concentration
 Zone Air Carbon Dioxide Balance Simulation, No,N/A
! <Zone Air Generic Contaminant Balance Simulation>, Simulation {Yes/No}, Generic Contaminant Concentration
 Zone Air Generic Contaminant Balance Simulation, No,N/A
! <Zone Air Mass Flow Balance Simulation>, Enforce Mass Balance, Adjust Zone Mixing, Adjust Zone Infiltration {AddInfiltration | AdjustInfiltration | None}, Infiltration Zones {MixingSourceZonesOnly | AllZones}
 Zone Air Mass Flow Balance Simulation, No,N/A,N/A,N/A
! <HVACSystemRootFindingAlgorithm>, Value {RegulaFalsi | Bisection | BisectionThenRegulaFalsi | RegulaFalsiThenBisection}
 HVACSystemRootFindingAlgorithm, RegulaFalsi
! <Environment:Site Atmospheric Variation>,Wind Speed Profile Exponent {},Wind Speed Profile Boundary Layer Thickness {m},Air Temperature Gradient Coefficient {K/m}
Environment:Site Atmospheric Variation,0.220,370.000,6.500000E-003
! <Surface Geometry>,Starting Corner,Vertex Input Direction,Coordinate System,Daylight Reference Point Coordinate System,Rectangular (Simple) Surface Coordinate System
 Surface Geometry,UpperLeftCorner,Counterclockwise,RelativeCoordinateSystem,RelativeCoordinateSystem,RelativeToZoneOrigin
! <Surface Heat Transfer Algorithm>, Value {CTF - ConductionTransferFunction | EMPD - MoisturePenetrationDepthConductionTransferFunction | CondFD - ConductionFiniteDifference | HAMT - CombinedHeatAndMoistureFiniteElement} - Description,Inside Surface Max Temperature Limit{C}, Surface Convection Coefficient Lower Limit {W/m2-K}, Surface Convection Coefficient Upper Limit {W/m2-K}
Surface Heat Transfer Algorithm, CTF - ConductionTransferFunction,200,0.10,1000.0
! <Shading Summary>, Number of Fixed Detached Shades, Number of Building Detached Shades, Number of Attached Shades
 Shading Summary,0,0,2
! <Zone Summary>, Number of Zones, Number of Zone Surfaces, Number of SubSurfaces
 Zone Summary,67,588,103
! <Zone Information>,Zone Name,North Axis {deg},Origin X-Coordinate {m},Origin Y-Coordinate {m},Origin Z-Coordinate {m},Centroid X-Coordinate {m},Centroid Y-Coordinate {m},Centroid Z-Coordinate {m},Type,Zone Multiplier,Zone List Multiplier,Minimum X {m},Maximum X {m},Minimum Y {m},Maximum Y {m},Minimum Z {m},Maximum Z {m},Ceiling Height {m},Volume {m3},Zone Inside Convection Algorithm {Simple-Detailed-CeilingDiffuser-TrombeWall},Zone Outside Convection Algorithm {Simple-Detailed-Tarp-MoWitt-DOE-2-BLAST}, Floor Area {m2},Exterior Gross Wall Area {m2},Exterior Net Wall Area {m2},Exterior Window Area {m2}, Number of Surfaces, Number of SubSurfaces, Number of Shading SubSurfaces,  Part of Total Building Area
 Zone Information, CORRIDORFLR1 ZN,0.0,0.00,0.00,0.00,-26.68,-9.43,1.68,1,1,1,-54.91,-4.87E-002,-18.34,-4.88E-002,0.00,3.35,3.35,504.62,TARP,TARP,150.51,32.70,22.89,9.82,29,3,2,Yes
 Zone Information, CORRIDORFLR2 ZN,0.0,0.00,0.00,0.00,-26.88,-10.72,4.72,1,1,1,-54.91,-4.87E-002,-18.34,-8.28,3.35,6.10,2.74,344.05,TARP,TARP,125.42,18.39,15.77,2.62,22,2,0,Yes
 Zone Information, CORRIDORFLR3 ZN,0.0,0.00,0.00,0.00,-26.88,-10.72,7.47,1,1,1,-54.91,-4.87E-002,-18.34,-8.28,6.10,8.84,2.74,344.05,TARP,TARP,125.42,18.39,15.77,2.62,22,2,0,Yes
 Zone Information, CORRIDORFLR4 ZN,0.0,0.00,0.00,0.00,-26.88,-10.72,10.21,1,1,1,-54.91,-4.87E-002,-18.34,-8.28,8.84,11.58,2.74,344.05,TARP,TARP,125.42,18.39,15.77,2.62,22,2,0,Yes
 Zone Information, ELEVATORCOREFLR1 ZN,0.0,0.00,0.00,0.00,-27.79,-14.22,1.68,1,1,1,-28.70,-26.87,-18.34,-10.11,0.00,3.35,3.35,50.46,TARP,TARP,15.05,6.13,6.13,0.00,6,0,0,Yes
 Zone Information, ELEVATORCOREFLR2 ZN,0.0,0.00,0.00,0.00,-27.79,-14.22,4.72,1,1,1,-28.70,-26.87,-18.34,-10.11,3.35,6.10,2.74,41.29,TARP,TARP,15.05,5.02,5.02,0.00,6,0,0,Yes
 Zone Information, ELEVATORCOREFLR3 ZN,0.0,0.00,0.00,0.00,-27.79,-14.22,7.47,1,1,1,-28.70,-26.87,-18.34,-10.11,6.10,8.84,2.74,41.29,TARP,TARP,15.05,5.02,5.02,0.00,6,0,0,Yes
 Zone Information, ELEVATORCOREFLR4 ZN,0.0,0.00,0.00,0.00,-27.79,-14.22,10.21,1,1,1,-28.70,-26.87,-18.34,-10.11,8.84,11.58,2.74,41.29,TARP,TARP,15.05,5.02,5.02,0.00,6,0,0,Yes
 Zone Information, EMPLOYEELOUNGEFLR1 ZN,0.0,0.00,0.00,0.00,-42.57,-14.22,1.68,1,1,1,-44.55,-40.59,-18.34,-10.11,0.00,3.35,3.35,109.33,TARP,TARP,32.61,13.29,11.64,1.65,6,1,0,Yes
 Zone Information, EXERCISECENTERFLR1 ZN,0.0,0.00,0.00,0.00,-21.84,-14.22,1.68,1,1,1,-23.82,-19.86,-18.34,-10.11,0.00,3.35,3.35,109.33,TARP,TARP,32.61,13.29,11.64,1.65,6,1,0,Yes
 Zone Information, FRONTLOUNGEFLR1 ZN,0.0,0.00,0.00,0.00,-9.95,-4.16,1.68,1,1,1,-19.86,-4.87E-002,-8.28,-4.88E-002,0.00,3.35,3.35,546.70,TARP,TARP,163.06,94.02,79.19,14.83,7,5,0,Yes
 Zone Information, FRONTOFFICEFLR1 ZN,0.0,0.00,0.00,0.00,-11.94,-14.22,1.68,1,1,1,-19.86,-4.01,-18.34,-10.11,0.00,3.35,3.35,437.33,TARP,TARP,130.44,53.14,46.56,6.58,7,4,0,Yes
 Zone Information, FRONTSTAIRSFLR1 ZN,0.0,0.00,0.00,0.00,-1.27,-14.22,1.68,1,1,1,-2.49,-4.87E-002,-18.34,-10.11,0.00,3.35,3.35,67.28,TARP,TARP,20.07,35.77,35.77,0.00,6,0,0,Yes
 Zone Information, FRONTSTAIRSFLR2 ZN,0.0,0.00,0.00,0.00,-1.27,-14.22,4.72,1,1,1,-2.49,-4.87E-002,-18.34,-10.11,3.35,6.10,2.74,55.05,TARP,TARP,20.07,29.26,29.26,0.00,6,0,0,Yes
 Zone Information, FRONTSTAIRSFLR3 ZN,0.0,0.00,0.00,0.00,-1.27,-14.22,7.47,1,1,1,-2.49,-4.87E-002,-18.34,-10.11,6.10,8.84,2.74,55.05,TARP,TARP,20.07,29.26,29.26,0.00,6,0,0,Yes
 Zone Information, FRONTSTAIRSFLR4 ZN,0.0,0.00,0.00,0.00,-1.27,-14.22,10.21,1,1,1,-2.49,-4.87E-002,-18.34,-10.11,8.84,11.58,2.74,55.05,TARP,TARP,20.07,29.26,29.26,0.00,6,0,0,Yes
 Zone Information, FRONTSTORAGEFLR1 ZN,0.0,0.00,0.00,0.00,-3.25,-14.22,1.68,1,1,1,-4.01,-2.49,-18.34,-10.11,0.00,3.35,3.35,42.05,TARP,TARP,12.54,5.11,5.11,0.00,6,0,0,Yes
 Zone Information, FRONTSTORAGEFLR2 ZN,0.0,0.00,0.00,0.00,-3.25,-14.22,4.72,1,1,1,-4.01,-2.49,-18.34,-10.11,3.35,6.10,2.74,34.40,TARP,TARP,12.54,4.18,4.18,0.00,6,0,0,Yes
 Zone Information, FRONTSTORAGEFLR3 ZN,0.0,0.00,0.00,0.00,-3.25,-14.22,7.47,1,1,1,-4.01,-2.49,-18.34,-10.11,6.10,8.84,2.74,34.40,TARP,TARP,12.54,4.18,4.18,0.00,6,0,0,Yes
 Zone Information, FRONTSTORAGEFLR4 ZN,0.0,0.00,0.00,0.00,-3.25,-14.22,10.21,1,1,1,-4.01,-2.49,-18.34,-10.11,8.84,11.58,2.74,34.40,TARP,TARP,12.54,4.18,4.18,0.00,6,0,0,Yes
 Zone Information, GUESTROOM101 ZN,0.0,0.00,0.00,0.00,-42.57,-4.16,1.68,1,1,1,-44.55,-40.59,-8.28,-4.88E-002,0.00,3.35,3.35,109.34,TARP,TARP,32.61,13.29,11.64,1.65,6,1,0,Yes
 Zone Information, GUESTROOM102 ZN,0.0,0.00,0.00,0.00,-46.53,-4.16,1.68,1,1,1,-48.51,-44.55,-8.28,-4.88E-002,0.00,3.35,3.35,109.34,TARP,TARP,32.61,13.29,11.64,1.65,6,1,0,Yes
 Zone Information, GUESTROOM103 ZN,0.0,0.00,0.00,0.00,-50.49,-4.16,1.68,1,1,1,-52.47,-48.51,-8.28,-4.88E-002,0.00,3.35,3.35,109.34,TARP,TARP,32.61,13.29,11.64,1.65,6,1,0,Yes
 Zone Information, GUESTROOM104 ZN,0.0,0.00,0.00,0.00,-50.49,-14.22,1.68,1,1,1,-52.47,-48.51,-18.34,-10.11,0.00,3.35,3.35,109.33,TARP,TARP,32.61,13.29,11.64,1.65,6,1,0,Yes
 Zone Information, GUESTROOM105 ZN,0.0,0.00,0.00,0.00,-46.53,-14.22,1.68,1,1,1,-48.51,-44.55,-18.34,-10.11,0.00,3.35,3.35,109.33,TARP,TARP,32.61,13.29,11.64,1.65,6,1,0,Yes
 Zone Information, GUESTROOM201 ZN,0.0,0.00,0.00,0.00,-2.03,-4.16,4.72,1,1,1,-4.01,-4.87E-002,-8.28,-4.88E-002,3.35,6.10,2.74,89.46,TARP,TARP,32.61,33.45,31.80,1.65,6,1,0,Yes
 Zone Information, GUESTROOM202_205 ZN,0.0,0.00,0.00,0.00,-11.94,-4.16,4.72,1,1,1,-19.86,-4.01,-8.28,-4.88E-002,3.35,6.10,2.74,357.84,TARP,TARP,130.45,43.48,36.90,6.58,6,4,0,Yes
 Zone Information, GUESTROOM206_208 ZN,0.0,0.00,0.00,0.00,-26.26,-4.16,4.72,1,1,1,-32.66,-19.86,-8.28,-4.88E-002,3.35,6.10,2.74,289.02,TARP,TARP,105.36,35.12,28.42,6.70,8,3,0,Yes
 Zone Information, GUESTROOM209_212 ZN,0.0,0.00,0.00,0.00,-40.59,-4.16,4.72,1,1,1,-48.51,-32.66,-8.28,-4.88E-002,3.35,6.10,2.74,357.84,TARP,TARP,130.45,43.48,36.90,6.58,9,4,0,Yes
 Zone Information, GUESTROOM213 ZN,0.0,0.00,0.00,0.00,-50.49,-4.16,4.72,1,1,1,-52.47,-48.51,-8.28,-4.88E-002,3.35,6.10,2.74,89.46,TARP,TARP,32.61,10.87,9.22,1.65,6,1,0,Yes
 Zone Information, GUESTROOM214 ZN,0.0,0.00,0.00,0.00,-50.49,-14.22,4.72,1,1,1,-52.47,-48.51,-18.34,-10.11,3.35,6.10,2.74,89.45,TARP,TARP,32.61,10.87,9.22,1.65,6,1,0,Yes
 Zone Information, GUESTROOM215_218 ZN,0.0,0.00,0.00,0.00,-40.59,-14.22,4.72,1,1,1,-48.51,-32.66,-18.34,-10.11,3.35,6.10,2.74,357.81,TARP,TARP,130.44,43.48,36.90,6.58,8,4,0,Yes
 Zone Information, GUESTROOM219 ZN,0.0,0.00,0.00,0.00,-30.68,-14.22,4.72,1,1,1,-32.66,-28.70,-18.34,-10.11,3.35,6.10,2.74,89.45,TARP,TARP,32.61,10.87,9.22,1.65,6,1,0,Yes
 Zone Information, GUESTROOM220_223 ZN,0.0,0.00,0.00,0.00,-15.90,-14.22,4.72,1,1,1,-23.82,-7.97,-18.34,-10.11,3.35,6.10,2.74,357.81,TARP,TARP,130.44,43.48,36.90,6.58,7,4,0,Yes
 Zone Information, GUESTROOM224 ZN,0.0,0.00,0.00,0.00,-5.99,-14.22,4.72,1,1,1,-7.97,-4.01,-18.34,-10.11,3.35,6.10,2.74,89.45,TARP,TARP,32.61,10.87,9.22,1.65,6,1,0,Yes
 Zone Information, GUESTROOM301 ZN,0.0,0.00,0.00,0.00,-2.03,-4.16,7.47,1,1,1,-4.01,-4.87E-002,-8.28,-4.88E-002,6.10,8.84,2.74,89.46,TARP,TARP,32.61,33.45,31.80,1.65,6,1,0,Yes
 Zone Information, GUESTROOM302_305 ZN,0.0,0.00,0.00,0.00,-11.94,-4.16,7.47,1,1,1,-19.86,-4.01,-8.28,-4.88E-002,6.10,8.84,2.74,357.84,TARP,TARP,130.45,43.48,36.90,6.58,6,4,0,Yes
 Zone Information, GUESTROOM306_308 ZN,0.0,0.00,0.00,0.00,-26.26,-4.16,7.47,1,1,1,-32.66,-19.86,-8.28,-4.88E-002,6.10,8.84,2.74,289.02,TARP,TARP,105.36,35.12,28.42,6.70,6,3,0,Yes
 Zone Information, GUESTROOM309_312 ZN,0.0,0.00,0.00,0.00,-40.59,-4.16,7.47,1,1,1,-48.51,-32.66,-8.28,-4.88E-002,6.10,8.84,2.74,357.84,TARP,TARP,130.45,43.48,36.90,6.58,6,4,0,Yes
 Zone Information, GUESTROOM313 ZN,0.0,0.00,0.00,0.00,-50.49,-4.16,7.47,1,1,1,-52.47,-48.51,-8.28,-4.88E-002,6.10,8.84,2.74,89.46,TARP,TARP,32.61,10.87,9.22,1.65,6,1,0,Yes
 Zone Information, GUESTROOM314 ZN,0.0,0.00,0.00,0.00,-50.49,-14.22,7.47,1,1,1,-52.47,-48.51,-18.34,-10.11,6.10,8.84,2.74,89.45,TARP,TARP,32.61,10.87,9.22,1.65,6,1,0,Yes
 Zone Information, GUESTROOM315_318 ZN,0.0,0.00,0.00,0.00,-40.59,-14.22,7.47,1,1,1,-48.51,-32.66,-18.34,-10.11,6.10,8.84,2.74,357.81,TARP,TARP,130.44,43.48,36.90,6.58,6,4,0,Yes
 Zone Information, GUESTROOM319 ZN,0.0,0.00,0.00,0.00,-30.68,-14.22,7.47,1,1,1,-32.66,-28.70,-18.34,-10.11,6.10,8.84,2.74,89.45,TARP,TARP,32.61,10.87,9.22,1.65,6,1,0,Yes
 Zone Information, GUESTROOM320_323 ZN,0.0,0.00,0.00,0.00,-15.90,-14.22,7.47,1,1,1,-23.82,-7.97,-18.34,-10.11,6.10,8.84,2.74,357.81,TARP,TARP,130.44,43.48,36.90,6.58,6,4,0,Yes
 Zone Information, GUESTROOM324 ZN,0.0,0.00,0.00,0.00,-5.99,-14.22,7.47,1,1,1,-7.97,-4.01,-18.34,-10.11,6.10,8.84,2.74,89.45,TARP,TARP,32.61,10.87,9.22,1.65,6,1,0,Yes
 Zone Information, GUESTROOM401 ZN,0.0,0.00,0.00,0.00,-2.03,-4.16,10.21,1,1,1,-4.01,-4.87E-002,-8.28,-4.88E-002,8.84,11.58,2.74,89.46,TARP,TARP,32.61,33.45,31.80,1.65,6,1,0,Yes
 Zone Information, GUESTROOM402_405 ZN,0.0,0.00,0.00,0.00,-11.94,-4.16,10.21,1,1,1,-19.86,-4.01,-8.28,-4.88E-002,8.84,11.58,2.74,357.84,TARP,TARP,130.45,43.48,36.90,6.58,6,4,0,Yes
 Zone Information, GUESTROOM406_408 ZN,0.0,0.00,0.00,0.00,-26.26,-4.16,10.21,1,1,1,-32.66,-19.86,-8.28,-4.88E-002,8.84,11.58,2.74,289.02,TARP,TARP,105.36,35.12,28.42,6.70,6,3,0,Yes
 Zone Information, GUESTROOM409_412 ZN,0.0,0.00,0.00,0.00,-40.59,-4.16,10.21,1,1,1,-48.51,-32.66,-8.28,-4.88E-002,8.84,11.58,2.74,357.84,TARP,TARP,130.45,43.48,36.90,6.58,6,4,0,Yes
 Zone Information, GUESTROOM413 ZN,0.0,0.00,0.00,0.00,-50.49,-4.16,10.21,1,1,1,-52.47,-48.51,-8.28,-4.88E-002,8.84,11.58,2.74,89.46,TARP,TARP,32.61,10.87,9.22,1.65,6,1,0,Yes
 Zone Information, GUESTROOM414 ZN,0.0,0.00,0.00,0.00,-50.49,-14.22,10.21,1,1,1,-52.47,-48.51,-18.34,-10.11,8.84,11.58,2.74,89.45,TARP,TARP,32.61,10.87,9.22,1.65,6,1,0,Yes
 Zone Information, GUESTROOM415_418 ZN,0.0,0.00,0.00,0.00,-40.59,-14.22,10.21,1,1,1,-48.51,-32.66,-18.34,-10.11,8.84,11.58,2.74,357.81,TARP,TARP,130.44,43.48,36.90,6.58,6,4,0,Yes
 Zone Information, GUESTROOM419 ZN,0.0,0.00,0.00,0.00,-30.68,-14.22,10.21,1,1,1,-32.66,-28.70,-18.34,-10.11,8.84,11.58,2.74,89.45,TARP,TARP,32.61,10.87,9.22,1.65,6,1,0,Yes
 Zone Information, GUESTROOM420_423 ZN,0.0,0.00,0.00,0.00,-15.90,-14.22,10.21,1,1,1,-23.82,-7.97,-18.34,-10.11,8.84,11.58,2.74,357.81,TARP,TARP,130.44,43.48,36.90,6.58,6,4,0,Yes
 Zone Information, GUESTROOM424 ZN,0.0,0.00,0.00,0.00,-5.99,-14.22,10.21,1,1,1,-7.97,-4.01,-18.34,-10.11,8.84,11.58,2.74,89.45,TARP,TARP,32.61,10.87,9.22,1.65,6,1,0,Yes
 Zone Information, LAUNDRYROOMFLR1 ZN,0.0,0.00,0.00,0.00,-34.64,-14.22,1.68,1,1,1,-40.59,-28.70,-18.34,-10.11,0.00,3.35,3.35,327.99,TARP,TARP,97.83,39.86,34.92,4.94,7,3,0,Yes
 Zone Information, MECHANICALROOMFLR1 ZN,0.0,0.00,0.00,0.00,-38.61,-4.16,1.68,1,1,1,-40.59,-36.62,-8.28,-4.88E-002,0.00,3.35,3.35,109.34,TARP,TARP,32.61,13.29,13.29,0.00,6,0,0,Yes
 Zone Information, MEETINGROOMFLR1 ZN,0.0,0.00,0.00,0.00,-31.75,-4.16,1.68,1,1,1,-36.62,-26.87,-8.28,-4.88E-002,0.00,3.35,3.35,269.14,TARP,TARP,80.27,32.70,27.77,4.94,7,3,0,Yes
 Zone Information, REARSTAIRSFLR1 ZN,0.0,0.00,0.00,0.00,-53.69,-14.22,1.68,1,1,1,-54.91,-52.47,-18.34,-10.11,0.00,3.35,3.35,67.30,TARP,TARP,20.07,35.77,35.77,0.00,6,0,0,Yes
 Zone Information, REARSTAIRSFLR2 ZN,0.0,0.00,0.00,0.00,-53.69,-14.22,4.72,1,1,1,-54.91,-52.47,-18.34,-10.11,3.35,6.10,2.74,55.06,TARP,TARP,20.07,29.27,29.27,0.00,6,0,0,Yes
 Zone Information, REARSTAIRSFLR3 ZN,0.0,0.00,0.00,0.00,-53.69,-14.22,7.47,1,1,1,-54.91,-52.47,-18.34,-10.11,6.10,8.84,2.74,55.06,TARP,TARP,20.07,29.27,29.27,0.00,6,0,0,Yes
 Zone Information, REARSTAIRSFLR4 ZN,0.0,0.00,0.00,0.00,-53.69,-14.22,10.21,1,1,1,-54.91,-52.47,-18.34,-10.11,8.84,11.58,2.74,55.06,TARP,TARP,20.07,29.27,29.27,0.00,6,0,0,Yes
 Zone Information, REARSTORAGEFLR1 ZN,0.0,0.00,0.00,0.00,-53.69,-4.16,1.68,1,1,1,-54.91,-52.47,-8.28,-4.88E-002,0.00,3.35,3.35,67.30,TARP,TARP,20.07,35.77,35.77,0.00,6,0,0,Yes
 Zone Information, REARSTORAGEFLR2 ZN,0.0,0.00,0.00,0.00,-53.69,-4.16,4.72,1,1,1,-54.91,-52.47,-8.28,-4.88E-002,3.35,6.10,2.74,55.07,TARP,TARP,20.07,29.27,29.27,0.00,6,0,0,Yes
 Zone Information, REARSTORAGEFLR3 ZN,0.0,0.00,0.00,0.00,-53.69,-4.16,7.47,1,1,1,-54.91,-52.47,-8.28,-4.88E-002,6.10,8.84,2.74,55.07,TARP,TARP,20.07,29.27,29.27,0.00,6,0,0,Yes
 Zone Information, REARSTORAGEFLR4 ZN,0.0,0.00,0.00,0.00,-53.69,-4.16,10.21,1,1,1,-54.91,-52.47,-8.28,-4.88E-002,8.84,11.58,2.74,55.07,TARP,TARP,20.07,29.27,29.27,0.00,6,0,0,Yes
 Zone Information, RESTROOMFLR1 ZN,0.0,0.00,0.00,0.00,-21.84,-4.16,1.68,1,1,1,-23.82,-19.86,-8.28,-4.88E-002,0.00,3.35,3.35,109.34,TARP,TARP,32.61,13.29,13.29,0.00,6,0,0,Yes
! <Zone Internal Gains Nominal>,Zone Name, Floor Area {m2},# Occupants,Area per Occupant {m2/person},Occupant per Area {person/m2},Interior Lighting {W/m2},Electric Load {W/m2},Gas Load {W/m2},Other Load {W/m2},Hot Water Eq {W/m2},Steam Equipment {W/m2},Sum Loads per Area {W/m2},Outdoor Controlled Baseboard Heat
 Zone Internal Gains Nominal, CORRIDORFLR1 ZN,150.51,0.0,N/A,0.000,7.104,0.000,0.000,0.000,0.000,0.000,7.104,No
 Zone Internal Gains Nominal, CORRIDORFLR2 ZN,125.42,0.0,N/A,0.000,7.104,0.000,0.000,0.000,0.000,0.000,7.104,No
 Zone Internal Gains Nominal, CORRIDORFLR3 ZN,125.42,0.0,N/A,0.000,7.104,0.000,0.000,0.000,0.000,0.000,7.104,No
 Zone Internal Gains Nominal, CORRIDORFLR4 ZN,125.42,0.0,N/A,0.000,7.104,0.000,0.000,0.000,0.000,0.000,7.104,No
 Zone Internal Gains Nominal, ELEVATORCOREFLR1 ZN,15.05,0.0,N/A,0.000,0.000,2133.407,0.000,0.000,0.000,0.000,2133.407,No
 Zone Internal Gains Nominal, ELEVATORCOREFLR2 ZN,15.05,0.0,N/A,0.000,0.000,0.000,0.000,0.000,0.000,0.000,0.000,No
 Zone Internal Gains Nominal, ELEVATORCOREFLR3 ZN,15.05,0.0,N/A,0.000,0.000,0.000,0.000,0.000,0.000,0.000,0.000,No
 Zone Internal Gains Nominal, ELEVATORCOREFLR4 ZN,15.05,0.0,N/A,0.000,0.000,0.000,0.000,0.000,0.000,0.000,0.000,No
 Zone Internal Gains Nominal, EMPLOYEELOUNGEFLR1 ZN,32.61,18.0,1.812,0.552,7.858,21.528,0.000,0.000,0.000,0.000,29.385,No
 Zone Internal Gains Nominal, EXERCISECENTERFLR1 ZN,32.61,7.0,4.659,0.215,7.750,18.622,0.000,0.000,0.000,0.000,26.372,No
 Zone Internal Gains Nominal, FRONTLOUNGEFLR1 ZN,163.06,52.7,3.097,0.323,7.858,26.049,0.000,0.000,0.000,0.000,33.906,No
 Zone Internal Gains Nominal, FRONTOFFICEFLR1 ZN,130.44,10.0,13.012,7.685E-002,11.948,13.778,0.000,0.000,0.000,0.000,25.726,No
 Zone Internal Gains Nominal, FRONTSTAIRSFLR1 ZN,20.07,0.0,N/A,0.000,7.427,0.000,0.000,0.000,0.000,0.000,7.427,No
 Zone Internal Gains Nominal, FRONTSTAIRSFLR2 ZN,20.07,0.0,N/A,0.000,7.427,0.000,0.000,0.000,0.000,0.000,7.427,No
 Zone Internal Gains Nominal, FRONTSTAIRSFLR3 ZN,20.07,0.0,N/A,0.000,7.427,0.000,0.000,0.000,0.000,0.000,7.427,No
 Zone Internal Gains Nominal, FRONTSTAIRSFLR4 ZN,20.07,0.0,N/A,0.000,7.427,0.000,0.000,0.000,0.000,0.000,7.427,No
 Zone Internal Gains Nominal, FRONTSTORAGEFLR1 ZN,12.54,0.0,N/A,0.000,6.781,0.000,0.000,0.000,0.000,0.000,6.781,No
 Zone Internal Gains Nominal, FRONTSTORAGEFLR2 ZN,12.54,0.0,N/A,0.000,6.781,0.000,0.000,0.000,0.000,0.000,6.781,No
 Zone Internal Gains Nominal, FRONTSTORAGEFLR3 ZN,12.54,0.0,N/A,0.000,6.781,0.000,0.000,0.000,0.000,0.000,6.781,No
 Zone Internal Gains Nominal, FRONTSTORAGEFLR4 ZN,12.54,0.0,N/A,0.000,6.781,0.000,0.000,0.000,0.000,0.000,6.781,No
 Zone Internal Gains Nominal, GUESTROOM101 ZN,32.61,1.5,21.757,4.596E-002,8.073,11.840,0.000,0.000,0.000,0.000,19.913,No
 Zone Internal Gains Nominal, GUESTROOM102 ZN,32.61,1.5,21.757,4.596E-002,8.073,11.840,0.000,0.000,0.000,0.000,19.913,No
 Zone Internal Gains Nominal, GUESTROOM103 ZN,32.61,1.5,21.757,4.596E-002,8.073,11.840,0.000,0.000,0.000,0.000,19.913,No
 Zone Internal Gains Nominal, GUESTROOM104 ZN,32.61,1.5,21.757,4.596E-002,8.073,11.840,0.000,0.000,0.000,0.000,19.913,No
 Zone Internal Gains Nominal, GUESTROOM105 ZN,32.61,1.5,21.757,4.596E-002,8.073,11.840,0.000,0.000,0.000,0.000,19.913,No
 Zone Internal Gains Nominal, GUESTROOM201 ZN,32.61,1.5,21.757,4.596E-002,8.073,11.840,0.000,0.000,0.000,0.000,19.913,No
 Zone Internal Gains Nominal, GUESTROOM202_205 ZN,130.45,6.0,21.757,4.596E-002,8.073,11.840,0.000,0.000,0.000,0.000,19.913,No
 Zone Internal Gains Nominal, GUESTROOM206_208 ZN,105.36,4.8,21.757,4.596E-002,8.073,11.840,0.000,0.000,0.000,0.000,19.913,No
 Zone Internal Gains Nominal, GUESTROOM209_212 ZN,130.45,6.0,21.757,4.596E-002,8.073,11.840,0.000,0.000,0.000,0.000,19.913,No
 Zone Internal Gains Nominal, GUESTROOM213 ZN,32.61,1.5,21.757,4.596E-002,8.073,11.840,0.000,0.000,0.000,0.000,19.913,No
 Zone Internal Gains Nominal, GUESTROOM214 ZN,32.61,1.5,21.757,4.596E-002,8.073,11.840,0.000,0.000,0.000,0.000,19.913,No
 Zone Internal Gains Nominal, GUESTROOM215_218 ZN,130.44,6.0,21.757,4.596E-002,8.073,11.840,0.000,0.000,0.000,0.000,19.913,No
 Zone Internal Gains Nominal, GUESTROOM219 ZN,32.61,1.5,21.757,4.596E-002,8.073,11.840,0.000,0.000,0.000,0.000,19.913,No
 Zone Internal Gains Nominal, GUESTROOM220_223 ZN,130.44,6.0,21.757,4.596E-002,8.073,11.840,0.000,0.000,0.000,0.000,19.913,No
 Zone Internal Gains Nominal, GUESTROOM224 ZN,32.61,1.5,21.757,4.596E-002,8.073,11.840,0.000,0.000,0.000,0.000,19.913,No
 Zone Internal Gains Nominal, GUESTROOM301 ZN,32.61,1.5,21.757,4.596E-002,8.073,11.840,0.000,0.000,0.000,0.000,19.913,No
 Zone Internal Gains Nominal, GUESTROOM302_305 ZN,130.45,6.0,21.757,4.596E-002,8.073,11.840,0.000,0.000,0.000,0.000,19.913,No
 Zone Internal Gains Nominal, GUESTROOM306_308 ZN,105.36,4.8,21.757,4.596E-002,8.073,11.840,0.000,0.000,0.000,0.000,19.913,No
 Zone Internal Gains Nominal, GUESTROOM309_312 ZN,130.45,6.0,21.757,4.596E-002,8.073,11.840,0.000,0.000,0.000,0.000,19.913,No
 Zone Internal Gains Nominal, GUESTROOM313 ZN,32.61,1.5,21.757,4.596E-002,8.073,11.840,0.000,0.000,0.000,0.000,19.913,No
 Zone Internal Gains Nominal, GUESTROOM314 ZN,32.61,1.5,21.757,4.596E-002,8.073,11.840,0.000,0.000,0.000,0.000,19.913,No
 Zone Internal Gains Nominal, GUESTROOM315_318 ZN,130.44,6.0,21.757,4.596E-002,8.073,11.840,0.000,0.000,0.000,0.000,19.913,No
 Zone Internal Gains Nominal, GUESTROOM319 ZN,32.61,1.5,21.757,4.596E-002,8.073,11.840,0.000,0.000,0.000,0.000,19.913,No
 Zone Internal Gains Nominal, GUESTROOM320_323 ZN,130.44,6.0,21.757,4.596E-002,8.073,11.840,0.000,0.000,0.000,0.000,19.913,No
 Zone Internal Gains Nominal, GUESTROOM324 ZN,32.61,1.5,21.757,4.596E-002,8.073,11.840,0.000,0.000,0.000,0.000,19.913,No
 Zone Internal Gains Nominal, GUESTROOM401 ZN,32.61,1.5,21.757,4.596E-002,8.073,11.840,0.000,0.000,0.000,0.000,19.913,No
 Zone Internal Gains Nominal, GUESTROOM402_405 ZN,130.45,6.0,21.757,4.596E-002,8.073,11.840,0.000,0.000,0.000,0.000,19.913,No
 Zone Internal Gains Nominal, GUESTROOM406_408 ZN,105.36,4.8,21.757,4.596E-002,8.073,11.840,0.000,0.000,0.000,0.000,19.913,No
 Zone Internal Gains Nominal, GUESTROOM409_412 ZN,130.45,6.0,21.757,4.596E-002,8.073,11.840,0.000,0.000,0.000,0.000,19.913,No
 Zone Internal Gains Nominal, GUESTROOM413 ZN,32.61,1.5,21.757,4.596E-002,8.073,11.840,0.000,0.000,0.000,0.000,19.913,No
 Zone Internal Gains Nominal, GUESTROOM414 ZN,32.61,1.5,21.757,4.596E-002,8.073,11.840,0.000,0.000,0.000,0.000,19.913,No
 Zone Internal Gains Nominal, GUESTROOM415_418 ZN,130.44,6.0,21.757,4.596E-002,8.073,11.840,0.000,0.000,0.000,0.000,19.913,No
 Zone Internal Gains Nominal, GUESTROOM419 ZN,32.61,1.5,21.757,4.596E-002,8.073,11.840,0.000,0.000,0.000,0.000,19.913,No
 Zone Internal Gains Nominal, GUESTROOM420_423 ZN,130.44,6.0,21.757,4.596E-002,8.073,11.840,0.000,0.000,0.000,0.000,19.913,No
 Zone Internal Gains Nominal, GUESTROOM424 ZN,32.61,1.5,21.757,4.596E-002,8.073,11.840,0.000,0.000,0.000,0.000,19.913,No
 Zone Internal Gains Nominal, LAUNDRYROOMFLR1 ZN,97.83,10.5,9.290,0.108,6.458,27.663,409.781,0.000,0.000,0.000,443.903,No
 Zone Internal Gains Nominal, MECHANICALROOMFLR1 ZN,32.61,0.0,N/A,0.000,10.226,0.000,0.000,0.000,0.000,0.000,10.226,No
 Zone Internal Gains Nominal, MEETINGROOMFLR1 ZN,80.27,43.2,1.858,0.538,13.240,6.178,0.000,0.000,0.000,0.000,19.418,No
 Zone Internal Gains Nominal, REARSTAIRSFLR1 ZN,20.07,0.0,N/A,0.000,7.427,0.000,0.000,0.000,0.000,0.000,7.427,No
 Zone Internal Gains Nominal, REARSTAIRSFLR2 ZN,20.07,0.0,N/A,0.000,7.427,0.000,0.000,0.000,0.000,0.000,7.427,No
 Zone Internal Gains Nominal, REARSTAIRSFLR3 ZN,20.07,0.0,N/A,0.000,7.427,0.000,0.000,0.000,0.000,0.000,7.427,No
 Zone Internal Gains Nominal, REARSTAIRSFLR4 ZN,20.07,0.0,N/A,0.000,7.427,0.000,0.000,0.000,0.000,0.000,7.427,No
 Zone Internal Gains Nominal, REARSTORAGEFLR1 ZN,20.07,0.0,N/A,0.000,6.781,0.000,0.000,0.000,0.000,0.000,6.781,No
 Zone Internal Gains Nominal, REARSTORAGEFLR2 ZN,20.07,0.0,N/A,0.000,6.781,0.000,0.000,0.000,0.000,0.000,6.781,No
 Zone Internal Gains Nominal, REARSTORAGEFLR3 ZN,20.07,0.0,N/A,0.000,6.781,0.000,0.000,0.000,0.000,0.000,6.781,No
 Zone Internal Gains Nominal, REARSTORAGEFLR4 ZN,20.07,0.0,N/A,0.000,6.781,0.000,0.000,0.000,0.000,0.000,6.781,No
 Zone Internal Gains Nominal, RESTROOMFLR1 ZN,32.61,1.0,32.598,3.068E-002,10.549,0.000,0.000,0.000,0.000,0.000,10.549,No
! <People Internal Gains Nominal>,Name,Schedule Name,Zone Name,Zone Floor Area {m2},# Zone Occupants,Number of People {},People/Floor Area {person/m2},Floor Area per person {m2/person},Fraction Radiant,Fraction Convected,Sensible Fraction Calculation,Activity level,ASHRAE 55 Warnings,Carbon Dioxide Generation Rate,Nominal Minimum Number of People,Nominal Maximum Number of People
 People Internal Gains Nominal, EXERCISECENTERFLR1 ZN SMALLHOTEL EXERCISE PEOPLE,HOTELSMALL EXERCISECENTER_OCC_SCH,EXERCISECENTERFLR1 ZN,32.61,7.0,7.0,0.215,4.659,0.300,0.700,AutoCalculate,HOTELSMALL ACTIVITY_SCH,No,3.8200E-008,0,7
 People Internal Gains Nominal, FRONTLOUNGEFLR1 ZN SMALLHOTEL GUESTLOUNGE PEOPLE,HOTELSMALL LOBBY_OCC_SCH,FRONTLOUNGEFLR1 ZN,163.06,52.7,52.7,0.323,3.097,0.300,0.700,AutoCalculate,HOTELSMALL ACTIVITY_SCH,No,3.8200E-008,0,53
 People Internal Gains Nominal, GUESTROOM103 ZN SMALLHOTEL GUESTROOM123OCC PEOPLE,HOTELSMALL GUESTROOM_OCC_SCH,GUESTROOM103 ZN,32.61,1.5,1.5,4.596E-002,21.757,0.300,0.700,AutoCalculate,HOTELSMALL ACTIVITY_SCH,No,3.8200E-008,0,1
 People Internal Gains Nominal, GUESTROOM104 ZN SMALLHOTEL GUESTROOM123OCC PEOPLE,HOTELSMALL GUESTROOM_OCC_SCH,GUESTROOM104 ZN,32.61,1.5,1.5,4.596E-002,21.757,0.300,0.700,AutoCalculate,HOTELSMALL ACTIVITY_SCH,No,3.8200E-008,0,1
 People Internal Gains Nominal, GUESTROOM105 ZN SMALLHOTEL GUESTROOM123OCC PEOPLE,HOTELSMALL GUESTROOM_OCC_SCH,GUESTROOM105 ZN,32.61,1.5,1.5,4.596E-002,21.757,0.300,0.700,AutoCalculate,HOTELSMALL ACTIVITY_SCH,No,3.8200E-008,0,1
 People Internal Gains Nominal, GUESTROOM202_205 ZN SMALLHOTEL GUESTROOM123OCC PEOPLE,HOTELSMALL GUESTROOM_OCC_SCH,GUESTROOM202_205 ZN,130.45,6.0,6.0,4.596E-002,21.757,0.300,0.700,AutoCalculate,HOTELSMALL ACTIVITY_SCH,No,3.8200E-008,0,6
 People Internal Gains Nominal, GUESTROOM206_208 ZN SMALLHOTEL GUESTROOM123OCC PEOPLE,HOTELSMALL GUESTROOM_OCC_SCH,GUESTROOM206_208 ZN,105.36,4.8,4.8,4.596E-002,21.757,0.300,0.700,AutoCalculate,HOTELSMALL ACTIVITY_SCH,No,3.8200E-008,0,5
 People Internal Gains Nominal, GUESTROOM209_212 ZN SMALLHOTEL GUESTROOM123OCC PEOPLE,HOTELSMALL GUESTROOM_OCC_SCH,GUESTROOM209_212 ZN,130.45,6.0,6.0,4.596E-002,21.757,0.300,0.700,AutoCalculate,HOTELSMALL ACTIVITY_SCH,No,3.8200E-008,0,6
 People Internal Gains Nominal, GUESTROOM213 ZN SMALLHOTEL GUESTROOM123OCC PEOPLE,HOTELSMALL GUESTROOM_OCC_SCH,GUESTROOM213 ZN,32.61,1.5,1.5,4.596E-002,21.757,0.300,0.700,AutoCalculate,HOTELSMALL ACTIVITY_SCH,No,3.8200E-008,0,1
 People Internal Gains Nominal, GUESTROOM214 ZN SMALLHOTEL GUESTROOM123OCC PEOPLE,HOTELSMALL GUESTROOM_OCC_SCH,GUESTROOM214 ZN,32.61,1.5,1.5,4.596E-002,21.757,0.300,0.700,AutoCalculate,HOTELSMALL ACTIVITY_SCH,No,3.8200E-008,0,1
 People Internal Gains Nominal, GUESTROOM219 ZN SMALLHOTEL GUESTROOM123OCC PEOPLE,HOTELSMALL GUESTROOM_OCC_SCH,GUESTROOM219 ZN,32.61,1.5,1.5,4.596E-002,21.757,0.300,0.700,AutoCalculate,HOTELSMALL ACTIVITY_SCH,No,3.8200E-008,0,1
 People Internal Gains Nominal, GUESTROOM220_223 ZN SMALLHOTEL GUESTROOM123OCC PEOPLE,HOTELSMALL GUESTROOM_OCC_SCH,GUESTROOM220_223 ZN,130.44,6.0,6.0,4.596E-002,21.757,0.300,0.700,AutoCalculate,HOTELSMALL ACTIVITY_SCH,No,3.8200E-008,0,6
 People Internal Gains Nominal, GUESTROOM224 ZN SMALLHOTEL GUESTROOM123OCC PEOPLE,HOTELSMALL GUESTROOM_OCC_SCH,GUESTROOM224 ZN,32.61,1.5,1.5,4.596E-002,21.757,0.300,0.700,AutoCalculate,HOTELSMALL ACTIVITY_SCH,No,3.8200E-008,0,1
 People Internal Gains Nominal, GUESTROOM309_312 ZN SMALLHOTEL GUESTROOM123OCC PEOPLE,HOTELSMALL GUESTROOM_OCC_SCH,GUESTROOM309_312 ZN,130.45,6.0,6.0,4.596E-002,21.757,0.300,0.700,AutoCalculate,HOTELSMALL ACTIVITY_SCH,No,3.8200E-008,0,6
 People Internal Gains Nominal, GUESTROOM314 ZN SMALLHOTEL GUESTROOM123OCC PEOPLE,HOTELSMALL GUESTROOM_OCC_SCH,GUESTROOM314 ZN,32.61,1.5,1.5,4.596E-002,21.757,0.300,0.700,AutoCalculate,HOTELSMALL ACTIVITY_SCH,No,3.8200E-008,0,1
 People Internal Gains Nominal, GUESTROOM315_318 ZN SMALLHOTEL GUESTROOM123OCC PEOPLE,HOTELSMALL GUESTROOM_OCC_SCH,GUESTROOM315_318 ZN,130.44,6.0,6.0,4.596E-002,21.757,0.300,0.700,AutoCalculate,HOTELSMALL ACTIVITY_SCH,No,3.8200E-008,0,6
 People Internal Gains Nominal, GUESTROOM320_323 ZN SMALLHOTEL GUESTROOM123OCC PEOPLE,HOTELSMALL GUESTROOM_OCC_SCH,GUESTROOM320_323 ZN,130.44,6.0,6.0,4.596E-002,21.757,0.300,0.700,AutoCalculate,HOTELSMALL ACTIVITY_SCH,No,3.8200E-008,0,6
 People Internal Gains Nominal, GUESTROOM101 ZN SMALLHOTEL GUESTROOM123VAC PEOPLE,HOTELSMALL ALWAYSOFF,GUESTROOM101 ZN,32.61,1.5,1.5,4.596E-002,21.757,0.300,0.700,AutoCalculate,HOTELSMALL ACTIVITY_SCH,No,3.8200E-008,0,0
 People Internal Gains Nominal, GUESTROOM102 ZN SMALLHOTEL GUESTROOM123VAC PEOPLE,HOTELSMALL ALWAYSOFF,GUESTROOM102 ZN,32.61,1.5,1.5,4.596E-002,21.757,0.300,0.700,AutoCalculate,HOTELSMALL ACTIVITY_SCH,No,3.8200E-008,0,0
 People Internal Gains Nominal, GUESTROOM201 ZN SMALLHOTEL GUESTROOM123VAC PEOPLE,HOTELSMALL ALWAYSOFF,GUESTROOM201 ZN,32.61,1.5,1.5,4.596E-002,21.757,0.300,0.700,AutoCalculate,HOTELSMALL ACTIVITY_SCH,No,3.8200E-008,0,0
 People Internal Gains Nominal, GUESTROOM215_218 ZN SMALLHOTEL GUESTROOM123VAC PEOPLE,HOTELSMALL ALWAYSOFF,GUESTROOM215_218 ZN,130.44,6.0,6.0,4.596E-002,21.757,0.300,0.700,AutoCalculate,HOTELSMALL ACTIVITY_SCH,No,3.8200E-008,0,0
 People Internal Gains Nominal, GUESTROOM301 ZN SMALLHOTEL GUESTROOM123VAC PEOPLE,HOTELSMALL ALWAYSOFF,GUESTROOM301 ZN,32.61,1.5,1.5,4.596E-002,21.757,0.300,0.700,AutoCalculate,HOTELSMALL ACTIVITY_SCH,No,3.8200E-008,0,0
 People Internal Gains Nominal, GUESTROOM302_305 ZN SMALLHOTEL GUESTROOM123VAC PEOPLE,HOTELSMALL ALWAYSOFF,GUESTROOM302_305 ZN,130.45,6.0,6.0,4.596E-002,21.757,0.300,0.700,AutoCalculate,HOTELSMALL ACTIVITY_SCH,No,3.8200E-008,0,0
 People Internal Gains Nominal, GUESTROOM306_308 ZN SMALLHOTEL GUESTROOM123VAC PEOPLE,HOTELSMALL ALWAYSOFF,GUESTROOM306_308 ZN,105.36,4.8,4.8,4.596E-002,21.757,0.300,0.700,AutoCalculate,HOTELSMALL ACTIVITY_SCH,No,3.8200E-008,0,0
 People Internal Gains Nominal, GUESTROOM313 ZN SMALLHOTEL GUESTROOM123VAC PEOPLE,HOTELSMALL ALWAYSOFF,GUESTROOM313 ZN,32.61,1.5,1.5,4.596E-002,21.757,0.300,0.700,AutoCalculate,HOTELSMALL ACTIVITY_SCH,No,3.8200E-008,0,0
 People Internal Gains Nominal, GUESTROOM319 ZN SMALLHOTEL GUESTROOM123VAC PEOPLE,HOTELSMALL ALWAYSOFF,GUESTROOM319 ZN,32.61,1.5,1.5,4.596E-002,21.757,0.300,0.700,AutoCalculate,HOTELSMALL ACTIVITY_SCH,No,3.8200E-008,0,0
 People Internal Gains Nominal, GUESTROOM324 ZN SMALLHOTEL GUESTROOM123VAC PEOPLE,HOTELSMALL ALWAYSOFF,GUESTROOM324 ZN,32.61,1.5,1.5,4.596E-002,21.757,0.300,0.700,AutoCalculate,HOTELSMALL ACTIVITY_SCH,No,3.8200E-008,0,0
 People Internal Gains Nominal, GUESTROOM401 ZN SMALLHOTEL GUESTROOM4OCC PEOPLE,HOTELSMALL GUESTROOM_OCC_SCH,GUESTROOM401 ZN,32.61,1.5,1.5,4.596E-002,21.757,0.300,0.700,AutoCalculate,HOTELSMALL ACTIVITY_SCH,No,3.8200E-008,0,1
 People Internal Gains Nominal, GUESTROOM409_412 ZN SMALLHOTEL GUESTROOM4OCC PEOPLE,HOTELSMALL GUESTROOM_OCC_SCH,GUESTROOM409_412 ZN,130.45,6.0,6.0,4.596E-002,21.757,0.300,0.700,AutoCalculate,HOTELSMALL ACTIVITY_SCH,No,3.8200E-008,0,6
 People Internal Gains Nominal, GUESTROOM415_418 ZN SMALLHOTEL GUESTROOM4OCC PEOPLE,HOTELSMALL GUESTROOM_OCC_SCH,GUESTROOM415_418 ZN,130.44,6.0,6.0,4.596E-002,21.757,0.300,0.700,AutoCalculate,HOTELSMALL ACTIVITY_SCH,No,3.8200E-008,0,6
 People Internal Gains Nominal, GUESTROOM419 ZN SMALLHOTEL GUESTROOM4OCC PEOPLE,HOTELSMALL GUESTROOM_OCC_SCH,GUESTROOM419 ZN,32.61,1.5,1.5,4.596E-002,21.757,0.300,0.700,AutoCalculate,HOTELSMALL ACTIVITY_SCH,No,3.8200E-008,0,1
 People Internal Gains Nominal, GUESTROOM420_423 ZN SMALLHOTEL GUESTROOM4OCC PEOPLE,HOTELSMALL GUESTROOM_OCC_SCH,GUESTROOM420_423 ZN,130.44,6.0,6.0,4.596E-002,21.757,0.300,0.700,AutoCalculate,HOTELSMALL ACTIVITY_SCH,No,3.8200E-008,0,6
 People Internal Gains Nominal, GUESTROOM424 ZN SMALLHOTEL GUESTROOM4OCC PEOPLE,HOTELSMALL GUESTROOM_OCC_SCH,GUESTROOM424 ZN,32.61,1.5,1.5,4.596E-002,21.757,0.300,0.700,AutoCalculate,HOTELSMALL ACTIVITY_SCH,No,3.8200E-008,0,1
 People Internal Gains Nominal, GUESTROOM402_405 ZN SMALLHOTEL GUESTROOM4VAC PEOPLE,HOTELSMALL ALWAYSOFF,GUESTROOM402_405 ZN,130.45,6.0,6.0,4.596E-002,21.757,0.300,0.700,AutoCalculate,HOTELSMALL ACTIVITY_SCH,No,3.8200E-008,0,0
 People Internal Gains Nominal, GUESTROOM406_408 ZN SMALLHOTEL GUESTROOM4VAC PEOPLE,HOTELSMALL ALWAYSOFF,GUESTROOM406_408 ZN,105.36,4.8,4.8,4.596E-002,21.757,0.300,0.700,AutoCalculate,HOTELSMALL ACTIVITY_SCH,No,3.8200E-008,0,0
 People Internal Gains Nominal, GUESTROOM413 ZN SMALLHOTEL GUESTROOM4VAC PEOPLE,HOTELSMALL ALWAYSOFF,GUESTROOM413 ZN,32.61,1.5,1.5,4.596E-002,21.757,0.300,0.700,AutoCalculate,HOTELSMALL ACTIVITY_SCH,No,3.8200E-008,0,0
 People Internal Gains Nominal, GUESTROOM414 ZN SMALLHOTEL GUESTROOM4VAC PEOPLE,HOTELSMALL ALWAYSOFF,GUESTROOM414 ZN,32.61,1.5,1.5,4.596E-002,21.757,0.300,0.700,AutoCalculate,HOTELSMALL ACTIVITY_SCH,No,3.8200E-008,0,0
 People Internal Gains Nominal, LAUNDRYROOMFLR1 ZN SMALLHOTEL LAUNDRY PEOPLE,HOTELSMALL LAUNDRYROOM_OCC_SCH,LAUNDRYROOMFLR1 ZN,97.83,10.5,10.5,0.108,9.290,0.300,0.700,AutoCalculate,HOTELSMALL ACTIVITY_SCH,No,3.8200E-008,0,11
 People Internal Gains Nominal, MEETINGROOMFLR1 ZN SMALLHOTEL MEETING PEOPLE,HOTELSMALL MEETINGROOM_OCC_SCH,MEETINGROOMFLR1 ZN,80.27,43.2,43.2,0.538,1.858,0.300,0.700,AutoCalculate,HOTELSMALL ACTIVITY_SCH,No,3.8200E-008,0,43
 People Internal Gains Nominal, FRONTOFFICEFLR1 ZN SMALLHOTEL OFFICE PEOPLE,HOTELSMALL OFFICE_OCC_SCH,FRONTOFFICEFLR1 ZN,130.44,10.0,10.0,7.685E-002,13.012,0.300,0.700,AutoCalculate,HOTELSMALL ACTIVITY_SCH,No,3.8200E-008,0,10
 People Internal Gains Nominal, RESTROOMFLR1 ZN SMALLHOTEL PUBLICRESTROOM PEOPLE,HOTELSMALL LOBBY_OCC_SCH,RESTROOMFLR1 ZN,32.61,1.0,1.0,3.068E-002,32.598,0.300,0.700,AutoCalculate,HOTELSMALL ACTIVITY_SCH,No,3.8200E-008,0,1
 People Internal Gains Nominal, EMPLOYEELOUNGEFLR1 ZN SMALLHOTEL STAFFLOUNGE PEOPLE,HOTELSMALL EMPLOYEELOUNGE_OCC_SCH,EMPLOYEELOUNGEFLR1 ZN,32.61,18.0,18.0,0.552,1.812,0.300,0.700,AutoCalculate,HOTELSMALL ACTIVITY_SCH,No,3.8200E-008,0,18
! <Lights Internal Gains Nominal>,Name,Schedule Name,Zone Name,Zone Floor Area {m2},# Zone Occupants,Lighting Level {W},Lights/Floor Area {W/m2},Lights per person {W/person},Fraction Return Air,Fraction Radiant,Fraction Short Wave,Fraction Convected,Fraction Replaceable,End-Use Category,Nominal Minimum Lighting Level {W},Nominal Maximum Lighting Level {W}
 Lights Internal Gains Nominal, CORRIDORFLR1 ZN SMALLHOTEL CORRIDOR LIGHTS,HOTELSMALL BLDG_LIGHT_CORRIDOR_SCH,CORRIDORFLR1 ZN,150.51,0.0,1069.220,7.104,N/A,0.000,0.700,0.200,0.100,1.000,General,1069.220,1069.220
 Lights Internal Gains Nominal, CORRIDORFLR2 ZN SMALLHOTEL CORRIDOR LIGHTS,HOTELSMALL BLDG_LIGHT_CORRIDOR_SCH,CORRIDORFLR2 ZN,125.42,0.0,891.008,7.104,N/A,0.000,0.700,0.200,0.100,1.000,General,891.008,891.008
 Lights Internal Gains Nominal, CORRIDORFLR3 ZN SMALLHOTEL CORRIDOR LIGHTS,HOTELSMALL BLDG_LIGHT_CORRIDOR_SCH,CORRIDORFLR3 ZN,125.42,0.0,891.008,7.104,N/A,0.000,0.700,0.200,0.100,1.000,General,891.008,891.008
 Lights Internal Gains Nominal, CORRIDORFLR4 ZN SMALLHOTEL CORRIDOR4 LIGHTS,HOTELSMALL BLDG_LIGHT_CORRIDOR_SCH,CORRIDORFLR4 ZN,125.42,0.0,891.008,7.104,N/A,0.000,0.700,0.200,0.100,1.000,General,891.008,891.008
 Lights Internal Gains Nominal, EXERCISECENTERFLR1 ZN SMALLHOTEL EXERCISE LIGHTS,HOTELSMALL BLDG_LIGHT_EXERCENTER_SCH,EXERCISECENTERFLR1 ZN,32.61,7.0,252.720,7.750,36.108,0.000,0.700,0.200,0.100,1.000,General,0.000,252.720
 Lights Internal Gains Nominal, FRONTLOUNGEFLR1 ZN SMALLHOTEL GUESTLOUNGE LIGHTS,HOTELSMALL BLDG_LIGHT_FRONTLOUNGE_SCH,FRONTLOUNGEFLR1 ZN,163.06,52.7,1281.241,7.858,24.333,0.000,0.700,0.200,0.100,1.000,General,0.000,1281.241
 Lights Internal Gains Nominal, GUESTROOM103 ZN SMALLHOTEL GUESTROOM123OCC LIGHTS,HOTELSMALL BLDG_LIGHT_GUESTROOM_SCH_2010,GUESTROOM103 ZN,32.61,1.5,263.269,8.073,175.644,0.000,0.700,0.200,0.100,1.000,General,0.000,263.269
 Lights Internal Gains Nominal, GUESTROOM104 ZN SMALLHOTEL GUESTROOM123OCC LIGHTS,HOTELSMALL BLDG_LIGHT_GUESTROOM_SCH_2010,GUESTROOM104 ZN,32.61,1.5,263.250,8.073,175.644,0.000,0.700,0.200,0.100,1.000,General,0.000,263.250
 Lights Internal Gains Nominal, GUESTROOM105 ZN SMALLHOTEL GUESTROOM123OCC LIGHTS,HOTELSMALL BLDG_LIGHT_GUESTROOM_SCH_2010,GUESTROOM105 ZN,32.61,1.5,263.250,8.073,175.644,0.000,0.700,0.200,0.100,1.000,General,0.000,263.250
 Lights Internal Gains Nominal, GUESTROOM202_205 ZN SMALLHOTEL GUESTROOM123OCC LIGHTS,HOTELSMALL BLDG_LIGHT_GUESTROOM_SCH_2010,GUESTROOM202_205 ZN,130.45,6.0,1053.075,8.073,175.644,0.000,0.700,0.200,0.100,1.000,General,0.000,1053.075
 Lights Internal Gains Nominal, GUESTROOM206_208 ZN SMALLHOTEL GUESTROOM123OCC LIGHTS,HOTELSMALL BLDG_LIGHT_GUESTROOM_SCH_2010,GUESTROOM206_208 ZN,105.36,4.8,850.560,8.073,175.644,0.000,0.700,0.200,0.100,1.000,General,0.000,850.560
 Lights Internal Gains Nominal, GUESTROOM209_212 ZN SMALLHOTEL GUESTROOM123OCC LIGHTS,HOTELSMALL BLDG_LIGHT_GUESTROOM_SCH_2010,GUESTROOM209_212 ZN,130.45,6.0,1053.075,8.073,175.644,0.000,0.700,0.200,0.100,1.000,General,0.000,1053.075
 Lights Internal Gains Nominal, GUESTROOM213 ZN SMALLHOTEL GUESTROOM123OCC LIGHTS,HOTELSMALL BLDG_LIGHT_GUESTROOM_SCH_2010,GUESTROOM213 ZN,32.61,1.5,263.269,8.073,175.644,0.000,0.700,0.200,0.100,1.000,General,0.000,263.269
 Lights Internal Gains Nominal, GUESTROOM214 ZN SMALLHOTEL GUESTROOM123OCC LIGHTS,HOTELSMALL BLDG_LIGHT_GUESTROOM_SCH_2010,GUESTROOM214 ZN,32.61,1.5,263.250,8.073,175.644,0.000,0.700,0.200,0.100,1.000,General,0.000,263.250
 Lights Internal Gains Nominal, GUESTROOM219 ZN SMALLHOTEL GUESTROOM123OCC LIGHTS,HOTELSMALL BLDG_LIGHT_GUESTROOM_SCH_2010,GUESTROOM219 ZN,32.61,1.5,263.250,8.073,175.644,0.000,0.700,0.200,0.100,1.000,General,0.000,263.250
 Lights Internal Gains Nominal, GUESTROOM220_223 ZN SMALLHOTEL GUESTROOM123OCC LIGHTS,HOTELSMALL BLDG_LIGHT_GUESTROOM_SCH_2010,GUESTROOM220_223 ZN,130.44,6.0,1053.000,8.073,175.644,0.000,0.700,0.200,0.100,1.000,General,0.000,1053.000
 Lights Internal Gains Nominal, GUESTROOM224 ZN SMALLHOTEL GUESTROOM123OCC LIGHTS,HOTELSMALL BLDG_LIGHT_GUESTROOM_SCH_2010,GUESTROOM224 ZN,32.61,1.5,263.250,8.073,175.644,0.000,0.700,0.200,0.100,1.000,General,0.000,263.250
 Lights Internal Gains Nominal, GUESTROOM309_312 ZN SMALLHOTEL GUESTROOM123OCC LIGHTS,HOTELSMALL BLDG_LIGHT_GUESTROOM_SCH_2010,GUESTROOM309_312 ZN,130.45,6.0,1053.075,8.073,175.644,0.000,0.700,0.200,0.100,1.000,General,0.000,1053.075
 Lights Internal Gains Nominal, GUESTROOM314 ZN SMALLHOTEL GUESTROOM123OCC LIGHTS,HOTELSMALL BLDG_LIGHT_GUESTROOM_SCH_2010,GUESTROOM314 ZN,32.61,1.5,263.250,8.073,175.644,0.000,0.700,0.200,0.100,1.000,General,0.000,263.250
 Lights Internal Gains Nominal, GUESTROOM315_318 ZN SMALLHOTEL GUESTROOM123OCC LIGHTS,HOTELSMALL BLDG_LIGHT_GUESTROOM_SCH_2010,GUESTROOM315_318 ZN,130.44,6.0,1053.000,8.073,175.644,0.000,0.700,0.200,0.100,1.000,General,0.000,1053.000
 Lights Internal Gains Nominal, GUESTROOM320_323 ZN SMALLHOTEL GUESTROOM123OCC LIGHTS,HOTELSMALL BLDG_LIGHT_GUESTROOM_SCH_2010,GUESTROOM320_323 ZN,130.44,6.0,1053.000,8.073,175.644,0.000,0.700,0.200,0.100,1.000,General,0.000,1053.000
 Lights Internal Gains Nominal, GUESTROOM101 ZN SMALLHOTEL GUESTROOM123VAC LIGHTS,HOTELSMALL ALWAYSOFF,GUESTROOM101 ZN,32.61,1.5,263.269,8.073,175.644,0.000,0.700,0.200,0.100,1.000,General,0.000,0.000
 Lights Internal Gains Nominal, GUESTROOM102 ZN SMALLHOTEL GUESTROOM123VAC LIGHTS,HOTELSMALL ALWAYSOFF,GUESTROOM102 ZN,32.61,1.5,263.269,8.073,175.644,0.000,0.700,0.200,0.100,1.000,General,0.000,0.000
 Lights Internal Gains Nominal, GUESTROOM201 ZN SMALLHOTEL GUESTROOM123VAC LIGHTS,HOTELSMALL ALWAYSOFF,GUESTROOM201 ZN,32.61,1.5,263.269,8.073,175.644,0.000,0.700,0.200,0.100,1.000,General,0.000,0.000
 Lights Internal Gains Nominal, GUESTROOM215_218 ZN SMALLHOTEL GUESTROOM123VAC LIGHTS,HOTELSMALL ALWAYSOFF,GUESTROOM215_218 ZN,130.44,6.0,1053.000,8.073,175.644,0.000,0.700,0.200,0.100,1.000,General,0.000,0.000
 Lights Internal Gains Nominal, GUESTROOM301 ZN SMALLHOTEL GUESTROOM123VAC LIGHTS,HOTELSMALL ALWAYSOFF,GUESTROOM301 ZN,32.61,1.5,263.269,8.073,175.644,0.000,0.700,0.200,0.100,1.000,General,0.000,0.000
 Lights Internal Gains Nominal, GUESTROOM302_305 ZN SMALLHOTEL GUESTROOM123VAC LIGHTS,HOTELSMALL ALWAYSOFF,GUESTROOM302_305 ZN,130.45,6.0,1053.075,8.073,175.644,0.000,0.700,0.200,0.100,1.000,General,0.000,0.000
 Lights Internal Gains Nominal, GUESTROOM306_308 ZN SMALLHOTEL GUESTROOM123VAC LIGHTS,HOTELSMALL ALWAYSOFF,GUESTROOM306_308 ZN,105.36,4.8,850.560,8.073,175.644,0.000,0.700,0.200,0.100,1.000,General,0.000,0.000
 Lights Internal Gains Nominal, GUESTROOM313 ZN SMALLHOTEL GUESTROOM123VAC LIGHTS,HOTELSMALL ALWAYSOFF,GUESTROOM313 ZN,32.61,1.5,263.269,8.073,175.644,0.000,0.700,0.200,0.100,1.000,General,0.000,0.000
 Lights Internal Gains Nominal, GUESTROOM319 ZN SMALLHOTEL GUESTROOM123VAC LIGHTS,HOTELSMALL ALWAYSOFF,GUESTROOM319 ZN,32.61,1.5,263.250,8.073,175.644,0.000,0.700,0.200,0.100,1.000,General,0.000,0.000
 Lights Internal Gains Nominal, GUESTROOM324 ZN SMALLHOTEL GUESTROOM123VAC LIGHTS,HOTELSMALL ALWAYSOFF,GUESTROOM324 ZN,32.61,1.5,263.250,8.073,175.644,0.000,0.700,0.200,0.100,1.000,General,0.000,0.000
 Lights Internal Gains Nominal, GUESTROOM401 ZN SMALLHOTEL GUESTROOM4OCC LIGHTS,HOTELSMALL BLDG_LIGHT_GUESTROOM_SCH_2010,GUESTROOM401 ZN,32.61,1.5,263.269,8.073,175.644,0.000,0.700,0.200,0.100,1.000,General,0.000,263.269
 Lights Internal Gains Nominal, GUESTROOM409_412 ZN SMALLHOTEL GUESTROOM4OCC LIGHTS,HOTELSMALL BLDG_LIGHT_GUESTROOM_SCH_2010,GUESTROOM409_412 ZN,130.45,6.0,1053.075,8.073,175.644,0.000,0.700,0.200,0.100,1.000,General,0.000,1053.075
 Lights Internal Gains Nominal, GUESTROOM415_418 ZN SMALLHOTEL GUESTROOM4OCC LIGHTS,HOTELSMALL BLDG_LIGHT_GUESTROOM_SCH_2010,GUESTROOM415_418 ZN,130.44,6.0,1053.000,8.073,175.644,0.000,0.700,0.200,0.100,1.000,General,0.000,1053.000
 Lights Internal Gains Nominal, GUESTROOM419 ZN SMALLHOTEL GUESTROOM4OCC LIGHTS,HOTELSMALL BLDG_LIGHT_GUESTROOM_SCH_2010,GUESTROOM419 ZN,32.61,1.5,263.250,8.073,175.644,0.000,0.700,0.200,0.100,1.000,General,0.000,263.250
 Lights Internal Gains Nominal, GUESTROOM420_423 ZN SMALLHOTEL GUESTROOM4OCC LIGHTS,HOTELSMALL BLDG_LIGHT_GUESTROOM_SCH_2010,GUESTROOM420_423 ZN,130.44,6.0,1053.000,8.073,175.644,0.000,0.700,0.200,0.100,1.000,General,0.000,1053.000
 Lights Internal Gains Nominal, GUESTROOM424 ZN SMALLHOTEL GUESTROOM4OCC LIGHTS,HOTELSMALL BLDG_LIGHT_GUESTROOM_SCH_2010,GUESTROOM424 ZN,32.61,1.5,263.250,8.073,175.644,0.000,0.700,0.200,0.100,1.000,General,0.000,263.250
 Lights Internal Gains Nominal, GUESTROOM402_405 ZN SMALLHOTEL GUESTROOM4VAC LIGHTS,HOTELSMALL ALWAYSOFF,GUESTROOM402_405 ZN,130.45,6.0,1053.075,8.073,175.644,0.000,0.700,0.200,0.100,1.000,General,0.000,0.000
 Lights Internal Gains Nominal, GUESTROOM406_408 ZN SMALLHOTEL GUESTROOM4VAC LIGHTS,HOTELSMALL ALWAYSOFF,GUESTROOM406_408 ZN,105.36,4.8,850.560,8.073,175.644,0.000,0.700,0.200,0.100,1.000,General,0.000,0.000
 Lights Internal Gains Nominal, GUESTROOM413 ZN SMALLHOTEL GUESTROOM4VAC LIGHTS,HOTELSMALL ALWAYSOFF,GUESTROOM413 ZN,32.61,1.5,263.269,8.073,175.644,0.000,0.700,0.200,0.100,1.000,General,0.000,0.000
 Lights Internal Gains Nominal, GUESTROOM414 ZN SMALLHOTEL GUESTROOM4VAC LIGHTS,HOTELSMALL ALWAYSOFF,GUESTROOM414 ZN,32.61,1.5,263.250,8.073,175.644,0.000,0.700,0.200,0.100,1.000,General,0.000,0.000
 Lights Internal Gains Nominal, LAUNDRYROOMFLR1 ZN SMALLHOTEL LAUNDRY LIGHTS,HOTELSMALL BLDG_LIGHT_LAUNDRY_SCH,LAUNDRYROOMFLR1 ZN,97.83,10.5,631.800,6.458,60.000,0.000,0.700,0.200,0.100,1.000,General,0.000,631.800
 Lights Internal Gains Nominal, MECHANICALROOMFLR1 ZN SMALLHOTEL MECHANICAL LIGHTS,HOTELSMALL BLDG_LIGHT_MECHROOM_SCH,MECHANICALROOMFLR1 ZN,32.61,0.0,333.474,10.226,N/A,0.000,0.700,0.200,0.100,1.000,General,0.000,333.474
 Lights Internal Gains Nominal, MEETINGROOMFLR1 ZN SMALLHOTEL MEETING LIGHTS,HOTELSMALL BLDG_LIGHT_MEETINGROOM_SCH,MEETINGROOMFLR1 ZN,80.27,43.2,1062.795,13.240,24.600,0.000,0.700,0.200,0.100,1.000,General,0.000,1062.795
 Lights Internal Gains Nominal, FRONTOFFICEFLR1 ZN SMALLHOTEL OFFICE LIGHTS,HOTELSMALL BLDG_LIGHT_OFFICE_SCH,FRONTOFFICEFLR1 ZN,130.44,10.0,1558.440,11.948,155.462,0.000,0.700,0.200,0.100,1.000,General,0.000,1558.440
 Lights Internal Gains Nominal, RESTROOMFLR1 ZN SMALLHOTEL PUBLICRESTROOM LIGHTS,HOTELSMALL BLDG_LIGHT_RESTROOM_SCH,RESTROOMFLR1 ZN,32.61,1.0,344.004,10.549,343.860,0.000,0.700,0.200,0.100,1.000,General,227.043,227.043
 Lights Internal Gains Nominal, EMPLOYEELOUNGEFLR1 ZN SMALLHOTEL STAFFLOUNGE LIGHTS,HOTELSMALL BLDG_LIGHT_EMPLOYEELOUNGE_SCH,EMPLOYEELOUNGEFLR1 ZN,32.61,18.0,256.230,7.858,14.236,0.000,0.700,0.200,0.100,1.000,General,0.000,256.230
 Lights Internal Gains Nominal, FRONTSTAIRSFLR1 ZN SMALLHOTEL STAIR LIGHTS,HOTELSMALL BLDG_LIGHT_STAIR_SCH,FRONTSTAIRSFLR1 ZN,20.07,0.0,149.040,7.427,N/A,0.000,0.700,0.200,0.100,1.000,General,81.972,81.972
 Lights Internal Gains Nominal, FRONTSTAIRSFLR2 ZN SMALLHOTEL STAIR LIGHTS,HOTELSMALL BLDG_LIGHT_STAIR_SCH,FRONTSTAIRSFLR2 ZN,20.07,0.0,149.040,7.427,N/A,0.000,0.700,0.200,0.100,1.000,General,81.972,81.972
 Lights Internal Gains Nominal, FRONTSTAIRSFLR3 ZN SMALLHOTEL STAIR LIGHTS,HOTELSMALL BLDG_LIGHT_STAIR_SCH,FRONTSTAIRSFLR3 ZN,20.07,0.0,149.040,7.427,N/A,0.000,0.700,0.200,0.100,1.000,General,81.972,81.972
 Lights Internal Gains Nominal, REARSTAIRSFLR1 ZN SMALLHOTEL STAIR LIGHTS,HOTELSMALL BLDG_LIGHT_STAIR_SCH,REARSTAIRSFLR1 ZN,20.07,0.0,149.076,7.427,N/A,0.000,0.700,0.200,0.100,1.000,General,81.992,81.992
 Lights Internal Gains Nominal, REARSTAIRSFLR2 ZN SMALLHOTEL STAIR LIGHTS,HOTELSMALL BLDG_LIGHT_STAIR_SCH,REARSTAIRSFLR2 ZN,20.07,0.0,149.076,7.427,N/A,0.000,0.700,0.200,0.100,1.000,General,81.992,81.992
 Lights Internal Gains Nominal, REARSTAIRSFLR3 ZN SMALLHOTEL STAIR LIGHTS,HOTELSMALL BLDG_LIGHT_STAIR_SCH,REARSTAIRSFLR3 ZN,20.07,0.0,149.076,7.427,N/A,0.000,0.700,0.200,0.100,1.000,General,81.992,81.992
 Lights Internal Gains Nominal, FRONTSTAIRSFLR4 ZN SMALLHOTEL STAIR4 LIGHTS,HOTELSMALL BLDG_LIGHT_STAIR_SCH,FRONTSTAIRSFLR4 ZN,20.07,0.0,149.040,7.427,N/A,0.000,0.700,0.200,0.100,1.000,General,81.972,81.972
 Lights Internal Gains Nominal, REARSTAIRSFLR4 ZN SMALLHOTEL STAIR4 LIGHTS,HOTELSMALL BLDG_LIGHT_STAIR_SCH,REARSTAIRSFLR4 ZN,20.07,0.0,149.076,7.427,N/A,0.000,0.700,0.200,0.100,1.000,General,81.992,81.992
 Lights Internal Gains Nominal, FRONTSTORAGEFLR1 ZN SMALLHOTEL STORAGE LIGHTS,HOTELSMALL BLDG_LIGHT_STORAGE_SCH,FRONTSTORAGEFLR1 ZN,12.54,0.0,85.050,6.781,N/A,0.000,0.700,0.200,0.100,1.000,General,0.000,85.050
 Lights Internal Gains Nominal, FRONTSTORAGEFLR2 ZN SMALLHOTEL STORAGE LIGHTS,HOTELSMALL BLDG_LIGHT_STORAGE_SCH,FRONTSTORAGEFLR2 ZN,12.54,0.0,85.050,6.781,N/A,0.000,0.700,0.200,0.100,1.000,General,0.000,85.050
 Lights Internal Gains Nominal, FRONTSTORAGEFLR3 ZN SMALLHOTEL STORAGE LIGHTS,HOTELSMALL BLDG_LIGHT_STORAGE_SCH,FRONTSTORAGEFLR3 ZN,12.54,0.0,85.050,6.781,N/A,0.000,0.700,0.200,0.100,1.000,General,0.000,85.050
 Lights Internal Gains Nominal, REARSTORAGEFLR1 ZN SMALLHOTEL STORAGE LIGHTS,HOTELSMALL BLDG_LIGHT_STORAGE_SCH,REARSTORAGEFLR1 ZN,20.07,0.0,136.122,6.781,N/A,0.000,0.700,0.200,0.100,1.000,General,0.000,136.122
 Lights Internal Gains Nominal, REARSTORAGEFLR2 ZN SMALLHOTEL STORAGE LIGHTS,HOTELSMALL BLDG_LIGHT_STORAGE_SCH,REARSTORAGEFLR2 ZN,20.07,0.0,136.122,6.781,N/A,0.000,0.700,0.200,0.100,1.000,General,0.000,136.122
 Lights Internal Gains Nominal, REARSTORAGEFLR3 ZN SMALLHOTEL STORAGE LIGHTS,HOTELSMALL BLDG_LIGHT_STORAGE_SCH,REARSTORAGEFLR3 ZN,20.07,0.0,136.122,6.781,N/A,0.000,0.700,0.200,0.100,1.000,General,0.000,136.122
 Lights Internal Gains Nominal, FRONTSTORAGEFLR4 ZN SMALLHOTEL STORAGE4FRONT LIGHTS,HOTELSMALL BLDG_LIGHT_STORAGE_SCH,FRONTSTORAGEFLR4 ZN,12.54,0.0,85.050,6.781,N/A,0.000,0.700,0.200,0.100,1.000,General,0.000,85.050
 Lights Internal Gains Nominal, REARSTORAGEFLR4 ZN SMALLHOTEL STORAGE4REAR LIGHTS,HOTELSMALL BLDG_LIGHT_STORAGE_SCH,REARSTORAGEFLR4 ZN,20.07,0.0,136.122,6.781,N/A,0.000,0.700,0.200,0.100,1.000,General,0.000,136.122
! <ElectricEquipment Internal Gains Nominal>,Name,Schedule Name,Zone Name,Zone Floor Area {m2},# Zone Occupants,Equipment Level {W},Equipment/Floor Area {W/m2},Equipment per person {W/person},Fraction Latent,Fraction Radiant,Fraction Lost,Fraction Convected,End-Use SubCategory,Nominal Minimum Equipment Level {W},Nominal Maximum Equipment Level {W}
 ElectricEquipment Internal Gains Nominal, ELEVATORCOREFLR1 ZN SMALLHOTEL ELEC/MECHROOM ELEC EQUIP,HOTELSMALL BLDG_ELEVATORS,ELEVATORCOREFLR1 ZN,15.05,0.0,32108.400,2133.407,N/A,0.000,0.500,0.000,0.500,General,1605.420,16054.200
 ElectricEquipment Internal Gains Nominal, EXERCISECENTERFLR1 ZN SMALLHOTEL EXERCISE ELEC EQUIP,HOTELSMALL EXERCISECENTER_EQP_SCH,EXERCISECENTERFLR1 ZN,32.61,7.0,607.230,18.622,86.760,0.000,0.500,0.000,0.500,General,0.000,607.230
 ElectricEquipment Internal Gains Nominal, FRONTLOUNGEFLR1 ZN SMALLHOTEL GUESTLOUNGE ELEC EQUIP,HOTELSMALL LOBBY_EQP_SCH,FRONTLOUNGEFLR1 ZN,163.06,52.7,4247.401,26.049,80.667,0.000,0.500,0.000,0.500,General,0.000,4247.401
 ElectricEquipment Internal Gains Nominal, GUESTROOM103 ZN SMALLHOTEL GUESTROOM123OCC ELEC EQUIP,HOTELSMALL GUESTROOM_EQP_SCH_BASE,GUESTROOM103 ZN,32.61,1.5,386.127,11.840,257.611,0.000,0.500,0.000,0.500,General,0.000,386.127
 ElectricEquipment Internal Gains Nominal, GUESTROOM104 ZN SMALLHOTEL GUESTROOM123OCC ELEC EQUIP,HOTELSMALL GUESTROOM_EQP_SCH_BASE,GUESTROOM104 ZN,32.61,1.5,386.100,11.840,257.611,0.000,0.500,0.000,0.500,General,0.000,386.100
 ElectricEquipment Internal Gains Nominal, GUESTROOM105 ZN SMALLHOTEL GUESTROOM123OCC ELEC EQUIP,HOTELSMALL GUESTROOM_EQP_SCH_BASE,GUESTROOM105 ZN,32.61,1.5,386.100,11.840,257.611,0.000,0.500,0.000,0.500,General,0.000,386.100
 ElectricEquipment Internal Gains Nominal, GUESTROOM202_205 ZN SMALLHOTEL GUESTROOM123OCC ELEC EQUIP,HOTELSMALL GUESTROOM_EQP_SCH_BASE,GUESTROOM202_205 ZN,130.45,6.0,1544.510,11.840,257.611,0.000,0.500,0.000,0.500,General,0.000,1544.510
 ElectricEquipment Internal Gains Nominal, GUESTROOM206_208 ZN SMALLHOTEL GUESTROOM123OCC ELEC EQUIP,HOTELSMALL GUESTROOM_EQP_SCH_BASE,GUESTROOM206_208 ZN,105.36,4.8,1247.489,11.840,257.611,0.000,0.500,0.000,0.500,General,0.000,1247.489
 ElectricEquipment Internal Gains Nominal, GUESTROOM209_212 ZN SMALLHOTEL GUESTROOM123OCC ELEC EQUIP,HOTELSMALL GUESTROOM_EQP_SCH_BASE,GUESTROOM209_212 ZN,130.45,6.0,1544.510,11.840,257.611,0.000,0.500,0.000,0.500,General,0.000,1544.510
 ElectricEquipment Internal Gains Nominal, GUESTROOM213 ZN SMALLHOTEL GUESTROOM123OCC ELEC EQUIP,HOTELSMALL GUESTROOM_EQP_SCH_BASE,GUESTROOM213 ZN,32.61,1.5,386.127,11.840,257.611,0.000,0.500,0.000,0.500,General,0.000,386.127
 ElectricEquipment Internal Gains Nominal, GUESTROOM214 ZN SMALLHOTEL GUESTROOM123OCC ELEC EQUIP,HOTELSMALL GUESTROOM_EQP_SCH_BASE,GUESTROOM214 ZN,32.61,1.5,386.100,11.840,257.611,0.000,0.500,0.000,0.500,General,0.000,386.100
 ElectricEquipment Internal Gains Nominal, GUESTROOM219 ZN SMALLHOTEL GUESTROOM123OCC ELEC EQUIP,HOTELSMALL GUESTROOM_EQP_SCH_BASE,GUESTROOM219 ZN,32.61,1.5,386.100,11.840,257.611,0.000,0.500,0.000,0.500,General,0.000,386.100
 ElectricEquipment Internal Gains Nominal, GUESTROOM220_223 ZN SMALLHOTEL GUESTROOM123OCC ELEC EQUIP,HOTELSMALL GUESTROOM_EQP_SCH_BASE,GUESTROOM220_223 ZN,130.44,6.0,1544.400,11.840,257.611,0.000,0.500,0.000,0.500,General,0.000,1544.400
 ElectricEquipment Internal Gains Nominal, GUESTROOM224 ZN SMALLHOTEL GUESTROOM123OCC ELEC EQUIP,HOTELSMALL GUESTROOM_EQP_SCH_BASE,GUESTROOM224 ZN,32.61,1.5,386.100,11.840,257.611,0.000,0.500,0.000,0.500,General,0.000,386.100
 ElectricEquipment Internal Gains Nominal, GUESTROOM309_312 ZN SMALLHOTEL GUESTROOM123OCC ELEC EQUIP,HOTELSMALL GUESTROOM_EQP_SCH_BASE,GUESTROOM309_312 ZN,130.45,6.0,1544.510,11.840,257.611,0.000,0.500,0.000,0.500,General,0.000,1544.510
 ElectricEquipment Internal Gains Nominal, GUESTROOM314 ZN SMALLHOTEL GUESTROOM123OCC ELEC EQUIP,HOTELSMALL GUESTROOM_EQP_SCH_BASE,GUESTROOM314 ZN,32.61,1.5,386.100,11.840,257.611,0.000,0.500,0.000,0.500,General,0.000,386.100
 ElectricEquipment Internal Gains Nominal, GUESTROOM315_318 ZN SMALLHOTEL GUESTROOM123OCC ELEC EQUIP,HOTELSMALL GUESTROOM_EQP_SCH_BASE,GUESTROOM315_318 ZN,130.44,6.0,1544.400,11.840,257.611,0.000,0.500,0.000,0.500,General,0.000,1544.400
 ElectricEquipment Internal Gains Nominal, GUESTROOM320_323 ZN SMALLHOTEL GUESTROOM123OCC ELEC EQUIP,HOTELSMALL GUESTROOM_EQP_SCH_BASE,GUESTROOM320_323 ZN,130.44,6.0,1544.400,11.840,257.611,0.000,0.500,0.000,0.500,General,0.000,1544.400
 ElectricEquipment Internal Gains Nominal, GUESTROOM101 ZN SMALLHOTEL GUESTROOM123VAC ELEC EQUIP,HOTELSMALL ALWAYSOFF,GUESTROOM101 ZN,32.61,1.5,386.127,11.840,257.611,0.000,0.500,0.000,0.500,General,0.000,0.000
 ElectricEquipment Internal Gains Nominal, GUESTROOM102 ZN SMALLHOTEL GUESTROOM123VAC ELEC EQUIP,HOTELSMALL ALWAYSOFF,GUESTROOM102 ZN,32.61,1.5,386.127,11.840,257.611,0.000,0.500,0.000,0.500,General,0.000,0.000
 ElectricEquipment Internal Gains Nominal, GUESTROOM201 ZN SMALLHOTEL GUESTROOM123VAC ELEC EQUIP,HOTELSMALL ALWAYSOFF,GUESTROOM201 ZN,32.61,1.5,386.127,11.840,257.611,0.000,0.500,0.000,0.500,General,0.000,0.000
 ElectricEquipment Internal Gains Nominal, GUESTROOM215_218 ZN SMALLHOTEL GUESTROOM123VAC ELEC EQUIP,HOTELSMALL ALWAYSOFF,GUESTROOM215_218 ZN,130.44,6.0,1544.400,11.840,257.611,0.000,0.500,0.000,0.500,General,0.000,0.000
 ElectricEquipment Internal Gains Nominal, GUESTROOM301 ZN SMALLHOTEL GUESTROOM123VAC ELEC EQUIP,HOTELSMALL ALWAYSOFF,GUESTROOM301 ZN,32.61,1.5,386.127,11.840,257.611,0.000,0.500,0.000,0.500,General,0.000,0.000
 ElectricEquipment Internal Gains Nominal, GUESTROOM302_305 ZN SMALLHOTEL GUESTROOM123VAC ELEC EQUIP,HOTELSMALL ALWAYSOFF,GUESTROOM302_305 ZN,130.45,6.0,1544.510,11.840,257.611,0.000,0.500,0.000,0.500,General,0.000,0.000
 ElectricEquipment Internal Gains Nominal, GUESTROOM306_308 ZN SMALLHOTEL GUESTROOM123VAC ELEC EQUIP,HOTELSMALL ALWAYSOFF,GUESTROOM306_308 ZN,105.36,4.8,1247.489,11.840,257.611,0.000,0.500,0.000,0.500,General,0.000,0.000
 ElectricEquipment Internal Gains Nominal, GUESTROOM313 ZN SMALLHOTEL GUESTROOM123VAC ELEC EQUIP,HOTELSMALL ALWAYSOFF,GUESTROOM313 ZN,32.61,1.5,386.127,11.840,257.611,0.000,0.500,0.000,0.500,General,0.000,0.000
 ElectricEquipment Internal Gains Nominal, GUESTROOM319 ZN SMALLHOTEL GUESTROOM123VAC ELEC EQUIP,HOTELSMALL ALWAYSOFF,GUESTROOM319 ZN,32.61,1.5,386.100,11.840,257.611,0.000,0.500,0.000,0.500,General,0.000,0.000
 ElectricEquipment Internal Gains Nominal, GUESTROOM324 ZN SMALLHOTEL GUESTROOM123VAC ELEC EQUIP,HOTELSMALL ALWAYSOFF,GUESTROOM324 ZN,32.61,1.5,386.100,11.840,257.611,0.000,0.500,0.000,0.500,General,0.000,0.000
 ElectricEquipment Internal Gains Nominal, GUESTROOM401 ZN SMALLHOTEL GUESTROOM4OCC ELEC EQUIP,HOTELSMALL GUESTROOM_EQP_SCH_BASE,GUESTROOM401 ZN,32.61,1.5,386.127,11.840,257.611,0.000,0.500,0.000,0.500,General,0.000,386.127
 ElectricEquipment Internal Gains Nominal, GUESTROOM409_412 ZN SMALLHOTEL GUESTROOM4OCC ELEC EQUIP,HOTELSMALL GUESTROOM_EQP_SCH_BASE,GUESTROOM409_412 ZN,130.45,6.0,1544.510,11.840,257.611,0.000,0.500,0.000,0.500,General,0.000,1544.510
 ElectricEquipment Internal Gains Nominal, GUESTROOM415_418 ZN SMALLHOTEL GUESTROOM4OCC ELEC EQUIP,HOTELSMALL GUESTROOM_EQP_SCH_BASE,GUESTROOM415_418 ZN,130.44,6.0,1544.400,11.840,257.611,0.000,0.500,0.000,0.500,General,0.000,1544.400
 ElectricEquipment Internal Gains Nominal, GUESTROOM419 ZN SMALLHOTEL GUESTROOM4OCC ELEC EQUIP,HOTELSMALL GUESTROOM_EQP_SCH_BASE,GUESTROOM419 ZN,32.61,1.5,386.100,11.840,257.611,0.000,0.500,0.000,0.500,General,0.000,386.100
 ElectricEquipment Internal Gains Nominal, GUESTROOM420_423 ZN SMALLHOTEL GUESTROOM4OCC ELEC EQUIP,HOTELSMALL GUESTROOM_EQP_SCH_BASE,GUESTROOM420_423 ZN,130.44,6.0,1544.400,11.840,257.611,0.000,0.500,0.000,0.500,General,0.000,1544.400
 ElectricEquipment Internal Gains Nominal, GUESTROOM424 ZN SMALLHOTEL GUESTROOM4OCC ELEC EQUIP,HOTELSMALL GUESTROOM_EQP_SCH_BASE,GUESTROOM424 ZN,32.61,1.5,386.100,11.840,257.611,0.000,0.500,0.000,0.500,General,0.000,386.100
 ElectricEquipment Internal Gains Nominal, GUESTROOM402_405 ZN SMALLHOTEL GUESTROOM4VAC ELEC EQUIP,HOTELSMALL ALWAYSOFF,GUESTROOM402_405 ZN,130.45,6.0,1544.510,11.840,257.611,0.000,0.500,0.000,0.500,General,0.000,0.000
 ElectricEquipment Internal Gains Nominal, GUESTROOM406_408 ZN SMALLHOTEL GUESTROOM4VAC ELEC EQUIP,HOTELSMALL ALWAYSOFF,GUESTROOM406_408 ZN,105.36,4.8,1247.489,11.840,257.611,0.000,0.500,0.000,0.500,General,0.000,0.000
 ElectricEquipment Internal Gains Nominal, GUESTROOM413 ZN SMALLHOTEL GUESTROOM4VAC ELEC EQUIP,HOTELSMALL ALWAYSOFF,GUESTROOM413 ZN,32.61,1.5,386.127,11.840,257.611,0.000,0.500,0.000,0.500,General,0.000,0.000
 ElectricEquipment Internal Gains Nominal, GUESTROOM414 ZN SMALLHOTEL GUESTROOM4VAC ELEC EQUIP,HOTELSMALL ALWAYSOFF,GUESTROOM414 ZN,32.61,1.5,386.100,11.840,257.611,0.000,0.500,0.000,0.500,General,0.000,0.000
 ElectricEquipment Internal Gains Nominal, LAUNDRYROOMFLR1 ZN SMALLHOTEL LAUNDRY ELEC EQUIP,HOTELSMALL LAUNDRYROOM_EQP_ELEC_SCH,LAUNDRYROOMFLR1 ZN,97.83,10.5,2706.210,27.663,257.000,0.000,0.200,0.000,0.800,General,0.000,2706.210
 ElectricEquipment Internal Gains Nominal, MEETINGROOMFLR1 ZN SMALLHOTEL MEETING ELEC EQUIP,HOTELSMALL MEETINGROOM_EQP_SCH,MEETINGROOMFLR1 ZN,80.27,43.2,495.971,6.178,11.480,0.000,0.500,0.000,0.500,General,0.000,267.824
 ElectricEquipment Internal Gains Nominal, FRONTOFFICEFLR1 ZN SMALLHOTEL OFFICE ELEC EQUIP,HOTELSMALL OFF_EQUIP_SCH,FRONTOFFICEFLR1 ZN,130.44,10.0,1797.120,13.778,179.272,0.000,0.500,0.000,0.500,General,0.000,1797.120
 ElectricEquipment Internal Gains Nominal, EMPLOYEELOUNGEFLR1 ZN SMALLHOTEL STAFFLOUNGE ELEC EQUIP,HOTELSMALL EMPLOYEELOUNGE_EQP_SCH,EMPLOYEELOUNGEFLR1 ZN,32.61,18.0,702.000,21.528,39.002,0.000,0.500,0.000,0.500,General,0.000,702.000
! <GasEquipment Internal Gains Nominal>,Name,Schedule Name,Zone Name,Zone Floor Area {m2},# Zone Occupants,Equipment Level {W},Equipment/Floor Area {W/m2},Equipment per person {W/person},Fraction Latent,Fraction Radiant,Fraction Lost,Fraction Convected,End-Use SubCategory,Nominal Minimum Equipment Level {W},Nominal Maximum Equipment Level {W}
 GasEquipment Internal Gains Nominal, LAUNDRYROOMFLR1 ZN SMALLHOTEL LAUNDRY GAS EQUIP,HOTELSMALL LAUNDRYROOM_EQP_GAS_SCH,LAUNDRYROOMFLR1 ZN,97.83,10.5,40087.638,409.781,3806.993,0.000,0.200,0.000,0.800,General,0.000,40087.638
! <Shadowing/Sun Position Calculations Annual Simulations>, Calculation Method, Value {days}, Allowable Number Figures in Shadow Overlap {}, Polygon Clipping Algorithm, Sky Diffuse Modeling Algorithm, External Shading Calculation Method, Output External Shading Calculation Results, Disable Self-Shading Within Shading Zone Groups, Disable Self-Shading From Shading Zone Groups to Other Zones
Shadowing/Sun Position Calculations Annual Simulations,AverageOverDaysInFrequency,20,15000,SutherlandHodgman,SimpleSkyDiffuseModeling,InternalCalculation,No,No,No
! <Zone/Window Adjacency Daylighting Counts>, Zone Name, Number of Exterior Windows, Number of Exterior Windows in Adjacent Zones
Zone/Window Adjacency Daylighting Counts, FRONTLOUNGEFLR1 ZN,5,0
! <Zone/Window Adjacency Daylighting Matrix>, Zone Name, Number of Adjacent Zones with Windows,Adjacent Zone Names - 1st 100 (max)
Zone/Window Adjacency Daylighting Matrix, FRONTLOUNGEFLR1 ZN,0
! <Water Heater Information>,Type,Name,Volume {m3},Maximum Capacity {W},Standard Rated Recovery Efficiency, Standard Rated Energy Factor
! <ZoneInfiltration Airflow Stats Nominal>,Name,Schedule Name,Zone Name, Zone Floor Area {m2}, # Zone Occupants,Design Volume Flow Rate {m3/s},Volume Flow Rate/Floor Area {m3/s/m2},Volume Flow Rate/Exterior Surface Area {m3/s/m2},ACH - Air Changes per Hour,Equation A - Constant Term Coefficient {},Equation B - Temperature Term Coefficient {1/C},Equation C - Velocity Term Coefficient {s/m}, Equation D - Velocity Squared Term Coefficient {s2/m2}
 ZoneInfiltration Airflow Stats Nominal, CORRIDOR1 DOOR INFILTRATION,HOTELSMALL INFIL_DOOR_OPENING_SCH,CORRIDORFLR1 ZN,150.51,0.0,0.592,3.932E-003,1.810E-002,4.222,1.000,0.000,0.000,0.000
 ZoneInfiltration Airflow Stats Nominal, CORRIDORFLR1 INFILTRATION,ALWAYS ON,CORRIDORFLR1 ZN,150.51,0.0,1.863E-002,1.238E-004,5.696E-004,0.133,0.000,0.000,0.224,0.000
 ZoneInfiltration Airflow Stats Nominal, CORRIDORFLR2 INFILTRATION,ALWAYS ON,CORRIDORFLR2 ZN,125.42,0.0,1.048E-002,8.354E-005,5.696E-004,0.110,0.000,0.000,0.224,0.000
 ZoneInfiltration Airflow Stats Nominal, CORRIDORFLR3 INFILTRATION,ALWAYS ON,CORRIDORFLR3 ZN,125.42,0.0,1.048E-002,8.354E-005,5.696E-004,0.110,0.000,0.000,0.224,0.000
 ZoneInfiltration Airflow Stats Nominal, CORRIDORFLR4 INFILTRATION,ALWAYS ON,CORRIDORFLR4 ZN,125.42,0.0,1.048E-002,8.354E-005,7.285E-005,0.110,0.000,0.000,0.224,0.000
 ZoneInfiltration Airflow Stats Nominal, ELEVATORCOREFLR1 INFILTRATION,ALWAYS ON,ELEVATORCOREFLR1 ZN,15.05,0.0,3.492E-003,2.320E-004,5.696E-004,0.249,0.000,0.000,0.224,0.000
 ZoneInfiltration Airflow Stats Nominal, ELEVATORCOREFLR2 INFILTRATION,ALWAYS ON,ELEVATORCOREFLR2 ZN,15.05,0.0,2.857E-003,1.899E-004,5.696E-004,0.249,0.000,0.000,0.224,0.000
 ZoneInfiltration Airflow Stats Nominal, ELEVATORCOREFLR3 INFILTRATION,ALWAYS ON,ELEVATORCOREFLR3 ZN,15.05,0.0,2.857E-003,1.899E-004,5.696E-004,0.249,0.000,0.000,0.224,0.000
 ZoneInfiltration Airflow Stats Nominal, ELEVATORCOREFLR4 INFILTRATION,ALWAYS ON,ELEVATORCOREFLR4 ZN,15.05,0.0,2.857E-003,1.899E-004,1.424E-004,0.249,0.000,0.000,0.224,0.000
 ZoneInfiltration Airflow Stats Nominal, EMPLOYEELOUNGEFLR1 INFILTRATION,HOTELSMALL COMMONAREA_INFIL_SCH,EMPLOYEELOUNGEFLR1 ZN,32.61,18.0,7.567E-003,2.320E-004,5.696E-004,0.249,0.000,0.000,0.224,0.000
 ZoneInfiltration Airflow Stats Nominal, EXERCISECENTERFLR1 INFILTRATION,HOTELSMALL COMMONAREA_INFIL_SCH,EXERCISECENTERFLR1 ZN,32.61,7.0,7.567E-003,2.320E-004,5.696E-004,0.249,0.000,0.000,0.224,0.000
 ZoneInfiltration Airflow Stats Nominal, FRONTLOUNGEFLR1 INFILTRATION,HOTELSMALL COMMONAREA_INFIL_SCH,FRONTLOUNGEFLR1 ZN,163.06,52.7,5.355E-002,3.284E-004,5.696E-004,0.353,0.000,0.000,0.224,0.000
 ZoneInfiltration Airflow Stats Nominal, FRONTOFFICEFLR1 INFILTRATION,HOTELSMALL COMMONAREA_INFIL_SCH,FRONTOFFICEFLR1 ZN,130.44,10.0,3.027E-002,2.320E-004,5.696E-004,0.249,0.000,0.000,0.224,0.000
 ZoneInfiltration Airflow Stats Nominal, FRONTSTAIRSFLR1 INFILTRATION,ALWAYS ON,FRONTSTAIRSFLR1 ZN,20.07,0.0,2.037E-002,1.015E-003,5.696E-004,1.090,0.000,0.000,0.224,0.000
 ZoneInfiltration Airflow Stats Nominal, FRONTSTAIRSFLR2 INFILTRATION,ALWAYS ON,FRONTSTAIRSFLR2 ZN,20.07,0.0,1.667E-002,8.306E-004,5.696E-004,1.090,0.000,0.000,0.224,0.000
 ZoneInfiltration Airflow Stats Nominal, FRONTSTAIRSFLR3 INFILTRATION,ALWAYS ON,FRONTSTAIRSFLR3 ZN,20.07,0.0,1.667E-002,8.306E-004,5.696E-004,1.090,0.000,0.000,0.224,0.000
 ZoneInfiltration Airflow Stats Nominal, FRONTSTAIRSFLR4 INFILTRATION,ALWAYS ON,FRONTSTAIRSFLR4 ZN,20.07,0.0,1.667E-002,8.306E-004,3.379E-004,1.090,0.000,0.000,0.224,0.000
 ZoneInfiltration Airflow Stats Nominal, FRONTSTORAGEFLR1 INFILTRATION,ALWAYS ON,FRONTSTORAGEFLR1 ZN,12.54,0.0,2.910E-003,2.320E-004,5.696E-004,0.249,0.000,0.000,0.224,0.000
 ZoneInfiltration Airflow Stats Nominal, FRONTSTORAGEFLR2 INFILTRATION,ALWAYS ON,FRONTSTORAGEFLR2 ZN,12.54,0.0,2.381E-003,1.899E-004,5.696E-004,0.249,0.000,0.000,0.224,0.000
 ZoneInfiltration Airflow Stats Nominal, FRONTSTORAGEFLR3 INFILTRATION,ALWAYS ON,FRONTSTORAGEFLR3 ZN,12.54,0.0,2.381E-003,1.899E-004,5.696E-004,0.249,0.000,0.000,0.224,0.000
 ZoneInfiltration Airflow Stats Nominal, FRONTSTORAGEFLR4 INFILTRATION,ALWAYS ON,FRONTSTORAGEFLR4 ZN,12.54,0.0,2.381E-003,1.899E-004,1.424E-004,0.249,0.000,0.000,0.224,0.000
 ZoneInfiltration Airflow Stats Nominal, GUESTROOM101 INFILTRATION,HOTELSMALL GUESTROOM_INFIL_SCH,GUESTROOM101 ZN,32.61,1.5,7.567E-003,2.320E-004,5.696E-004,0.249,0.000,0.000,0.224,0.000
 ZoneInfiltration Airflow Stats Nominal, GUESTROOM102 INFILTRATION,HOTELSMALL GUESTROOM_INFIL_SCH,GUESTROOM102 ZN,32.61,1.5,7.567E-003,2.320E-004,5.696E-004,0.249,0.000,0.000,0.224,0.000
 ZoneInfiltration Airflow Stats Nominal, GUESTROOM103 INFILTRATION,HOTELSMALL GUESTROOM_INFIL_SCH,GUESTROOM103 ZN,32.61,1.5,7.567E-003,2.320E-004,5.696E-004,0.249,0.000,0.000,0.224,0.000
 ZoneInfiltration Airflow Stats Nominal, GUESTROOM104 INFILTRATION,HOTELSMALL GUESTROOM_INFIL_SCH,GUESTROOM104 ZN,32.61,1.5,7.567E-003,2.320E-004,5.696E-004,0.249,0.000,0.000,0.224,0.000
 ZoneInfiltration Airflow Stats Nominal, GUESTROOM105 INFILTRATION,HOTELSMALL GUESTROOM_INFIL_SCH,GUESTROOM105 ZN,32.61,1.5,7.567E-003,2.320E-004,5.696E-004,0.249,0.000,0.000,0.224,0.000
 ZoneInfiltration Airflow Stats Nominal, GUESTROOM201 INFILTRATION,HOTELSMALL GUESTROOM_INFIL_SCH,GUESTROOM201 ZN,32.61,1.5,1.905E-002,5.842E-004,5.696E-004,0.767,0.000,0.000,0.224,0.000
 ZoneInfiltration Airflow Stats Nominal, GUESTROOM202_205 INFILTRATION,HOTELSMALL GUESTROOM_INFIL_SCH,GUESTROOM202_205 ZN,130.45,6.0,2.476E-002,1.898E-004,5.696E-004,0.249,0.000,0.000,0.224,0.000
 ZoneInfiltration Airflow Stats Nominal, GUESTROOM206_208 INFILTRATION,HOTELSMALL GUESTROOM_INFIL_SCH,GUESTROOM206_208 ZN,105.36,4.8,2.000E-002,1.898E-004,5.696E-004,0.249,0.000,0.000,0.224,0.000
 ZoneInfiltration Airflow Stats Nominal, GUESTROOM209_212 INFILTRATION,HOTELSMALL GUESTROOM_INFIL_SCH,GUESTROOM209_212 ZN,130.45,6.0,2.476E-002,1.898E-004,5.696E-004,0.249,0.000,0.000,0.224,0.000
 ZoneInfiltration Airflow Stats Nominal, GUESTROOM213 INFILTRATION,HOTELSMALL GUESTROOM_INFIL_SCH,GUESTROOM213 ZN,32.61,1.5,6.191E-003,1.898E-004,5.696E-004,0.249,0.000,0.000,0.224,0.000
 ZoneInfiltration Airflow Stats Nominal, GUESTROOM214 INFILTRATION,HOTELSMALL GUESTROOM_INFIL_SCH,GUESTROOM214 ZN,32.61,1.5,6.191E-003,1.899E-004,5.696E-004,0.249,0.000,0.000,0.224,0.000
 ZoneInfiltration Airflow Stats Nominal, GUESTROOM215_218 INFILTRATION,HOTELSMALL GUESTROOM_INFIL_SCH,GUESTROOM215_218 ZN,130.44,6.0,2.476E-002,1.899E-004,5.696E-004,0.249,0.000,0.000,0.224,0.000
 ZoneInfiltration Airflow Stats Nominal, GUESTROOM219 INFILTRATION,HOTELSMALL GUESTROOM_INFIL_SCH,GUESTROOM219 ZN,32.61,1.5,6.191E-003,1.899E-004,5.696E-004,0.249,0.000,0.000,0.224,0.000
 ZoneInfiltration Airflow Stats Nominal, GUESTROOM220_223 INFILTRATION,HOTELSMALL GUESTROOM_INFIL_SCH,GUESTROOM220_223 ZN,130.44,6.0,2.476E-002,1.899E-004,5.696E-004,0.249,0.000,0.000,0.224,0.000
 ZoneInfiltration Airflow Stats Nominal, GUESTROOM224 INFILTRATION,HOTELSMALL GUESTROOM_INFIL_SCH,GUESTROOM224 ZN,32.61,1.5,6.191E-003,1.899E-004,5.696E-004,0.249,0.000,0.000,0.224,0.000
 ZoneInfiltration Airflow Stats Nominal, GUESTROOM301 INFILTRATION,HOTELSMALL GUESTROOM_INFIL_SCH,GUESTROOM301 ZN,32.61,1.5,1.905E-002,5.842E-004,5.696E-004,0.767,0.000,0.000,0.224,0.000
 ZoneInfiltration Airflow Stats Nominal, GUESTROOM302_305 INFILTRATION,HOTELSMALL GUESTROOM_INFIL_SCH,GUESTROOM302_305 ZN,130.45,6.0,2.476E-002,1.898E-004,5.696E-004,0.249,0.000,0.000,0.224,0.000
 ZoneInfiltration Airflow Stats Nominal, GUESTROOM306_308 INFILTRATION,HOTELSMALL GUESTROOM_INFIL_SCH,GUESTROOM306_308 ZN,105.36,4.8,2.000E-002,1.898E-004,5.696E-004,0.249,0.000,0.000,0.224,0.000
 ZoneInfiltration Airflow Stats Nominal, GUESTROOM309_312 INFILTRATION,HOTELSMALL GUESTROOM_INFIL_SCH,GUESTROOM309_312 ZN,130.45,6.0,2.476E-002,1.898E-004,5.696E-004,0.249,0.000,0.000,0.224,0.000
 ZoneInfiltration Airflow Stats Nominal, GUESTROOM313 INFILTRATION,HOTELSMALL GUESTROOM_INFIL_SCH,GUESTROOM313 ZN,32.61,1.5,6.191E-003,1.898E-004,5.696E-004,0.249,0.000,0.000,0.224,0.000
 ZoneInfiltration Airflow Stats Nominal, GUESTROOM314 INFILTRATION,HOTELSMALL GUESTROOM_INFIL_SCH,GUESTROOM314 ZN,32.61,1.5,6.191E-003,1.899E-004,5.696E-004,0.249,0.000,0.000,0.224,0.000
 ZoneInfiltration Airflow Stats Nominal, GUESTROOM315_318 INFILTRATION,HOTELSMALL GUESTROOM_INFIL_SCH,GUESTROOM315_318 ZN,130.44,6.0,2.476E-002,1.899E-004,5.696E-004,0.249,0.000,0.000,0.224,0.000
 ZoneInfiltration Airflow Stats Nominal, GUESTROOM319 INFILTRATION,HOTELSMALL GUESTROOM_INFIL_SCH,GUESTROOM319 ZN,32.61,1.5,6.191E-003,1.899E-004,5.696E-004,0.249,0.000,0.000,0.224,0.000
 ZoneInfiltration Airflow Stats Nominal, GUESTROOM320_323 INFILTRATION,HOTELSMALL GUESTROOM_INFIL_SCH,GUESTROOM320_323 ZN,130.44,6.0,2.476E-002,1.899E-004,5.696E-004,0.249,0.000,0.000,0.224,0.000
 ZoneInfiltration Airflow Stats Nominal, GUESTROOM324 INFILTRATION,HOTELSMALL GUESTROOM_INFIL_SCH,GUESTROOM324 ZN,32.61,1.5,6.191E-003,1.899E-004,5.696E-004,0.249,0.000,0.000,0.224,0.000
 ZoneInfiltration Airflow Stats Nominal, GUESTROOM401 INFILTRATION,HOTELSMALL GUESTROOM_INFIL_SCH,GUESTROOM401 ZN,32.61,1.5,1.905E-002,5.842E-004,2.884E-004,0.767,0.000,0.000,0.224,0.000
 ZoneInfiltration Airflow Stats Nominal, GUESTROOM402_405 INFILTRATION,HOTELSMALL GUESTROOM_INFIL_SCH,GUESTROOM402_405 ZN,130.45,6.0,2.476E-002,1.898E-004,1.424E-004,0.249,0.000,0.000,0.224,0.000
 ZoneInfiltration Airflow Stats Nominal, GUESTROOM406_408 INFILTRATION,HOTELSMALL GUESTROOM_INFIL_SCH,GUESTROOM406_408 ZN,105.36,4.8,2.000E-002,1.898E-004,1.424E-004,0.249,0.000,0.000,0.224,0.000
 ZoneInfiltration Airflow Stats Nominal, GUESTROOM409_412 INFILTRATION,HOTELSMALL GUESTROOM_INFIL_SCH,GUESTROOM409_412 ZN,130.45,6.0,2.476E-002,1.898E-004,1.424E-004,0.249,0.000,0.000,0.224,0.000
 ZoneInfiltration Airflow Stats Nominal, GUESTROOM413 INFILTRATION,HOTELSMALL GUESTROOM_INFIL_SCH,GUESTROOM413 ZN,32.61,1.5,6.191E-003,1.898E-004,1.424E-004,0.249,0.000,0.000,0.224,0.000
 ZoneInfiltration Airflow Stats Nominal, GUESTROOM414 INFILTRATION,HOTELSMALL GUESTROOM_INFIL_SCH,GUESTROOM414 ZN,32.61,1.5,6.191E-003,1.899E-004,1.424E-004,0.249,0.000,0.000,0.224,0.000
 ZoneInfiltration Airflow Stats Nominal, GUESTROOM415_418 INFILTRATION,HOTELSMALL GUESTROOM_INFIL_SCH,GUESTROOM415_418 ZN,130.44,6.0,2.476E-002,1.899E-004,1.424E-004,0.249,0.000,0.000,0.224,0.000
 ZoneInfiltration Airflow Stats Nominal, GUESTROOM419 INFILTRATION,HOTELSMALL GUESTROOM_INFIL_SCH,GUESTROOM419 ZN,32.61,1.5,6.191E-003,1.899E-004,1.424E-004,0.249,0.000,0.000,0.224,0.000
 ZoneInfiltration Airflow Stats Nominal, GUESTROOM420_423 INFILTRATION,HOTELSMALL GUESTROOM_INFIL_SCH,GUESTROOM420_423 ZN,130.44,6.0,2.476E-002,1.899E-004,1.424E-004,0.249,0.000,0.000,0.224,0.000
 ZoneInfiltration Airflow Stats Nominal, GUESTROOM424 INFILTRATION,HOTELSMALL GUESTROOM_INFIL_SCH,GUESTROOM424 ZN,32.61,1.5,6.191E-003,1.899E-004,1.424E-004,0.249,0.000,0.000,0.224,0.000
 ZoneInfiltration Airflow Stats Nominal, LAUNDRYROOMFLR1 INFILTRATION,HOTELSMALL COMMONAREA_INFIL_SCH,LAUNDRYROOMFLR1 ZN,97.83,10.5,2.270E-002,2.320E-004,5.696E-004,0.249,0.000,0.000,0.224,0.000
 ZoneInfiltration Airflow Stats Nominal, MECHANICALROOMFLR1 INFILTRATION,HOTELSMALL COMMONAREA_INFIL_SCH,MECHANICALROOMFLR1 ZN,32.61,0.0,7.567E-003,2.320E-004,5.696E-004,0.249,0.000,0.000,0.224,0.000
 ZoneInfiltration Airflow Stats Nominal, MEETINGROOMFLR1 INFILTRATION,HOTELSMALL COMMONAREA_INFIL_SCH,MEETINGROOMFLR1 ZN,80.27,43.2,1.863E-002,2.320E-004,5.696E-004,0.249,0.000,0.000,0.224,0.000
 ZoneInfiltration Airflow Stats Nominal, REARSTAIRSFLR1 INFILTRATION,ALWAYS ON,REARSTAIRSFLR1 ZN,20.07,0.0,2.037E-002,1.015E-003,5.696E-004,1.090,0.000,0.000,0.224,0.000
 ZoneInfiltration Airflow Stats Nominal, REARSTAIRSFLR2 INFILTRATION,ALWAYS ON,REARSTAIRSFLR2 ZN,20.07,0.0,1.667E-002,8.305E-004,5.696E-004,1.090,0.000,0.000,0.224,0.000
 ZoneInfiltration Airflow Stats Nominal, REARSTAIRSFLR3 INFILTRATION,ALWAYS ON,REARSTAIRSFLR3 ZN,20.07,0.0,1.667E-002,8.305E-004,5.696E-004,1.090,0.000,0.000,0.224,0.000
 ZoneInfiltration Airflow Stats Nominal, REARSTAIRSFLR4 INFILTRATION,ALWAYS ON,REARSTAIRSFLR4 ZN,20.07,0.0,1.667E-002,8.305E-004,3.379E-004,1.090,0.000,0.000,0.224,0.000
 ZoneInfiltration Airflow Stats Nominal, REARSTORAGEFLR1 INFILTRATION,ALWAYS ON,REARSTORAGEFLR1 ZN,20.07,0.0,2.037E-002,1.015E-003,5.696E-004,1.090,0.000,0.000,0.224,0.000
 ZoneInfiltration Airflow Stats Nominal, REARSTORAGEFLR2 INFILTRATION,ALWAYS ON,REARSTORAGEFLR2 ZN,20.07,0.0,1.667E-002,8.305E-004,5.696E-004,1.090,0.000,0.000,0.224,0.000
 ZoneInfiltration Airflow Stats Nominal, REARSTORAGEFLR3 INFILTRATION,ALWAYS ON,REARSTORAGEFLR3 ZN,20.07,0.0,1.667E-002,8.305E-004,5.696E-004,1.090,0.000,0.000,0.224,0.000
 ZoneInfiltration Airflow Stats Nominal, REARSTORAGEFLR4 INFILTRATION,ALWAYS ON,REARSTORAGEFLR4 ZN,20.07,0.0,1.667E-002,8.305E-004,3.379E-004,1.090,0.000,0.000,0.224,0.000
 ZoneInfiltration Airflow Stats Nominal, RESTROOMFLR1 INFILTRATION,HOTELSMALL COMMONAREA_INFIL_SCH,RESTROOMFLR1 ZN,32.61,1.0,7.567E-003,2.320E-004,5.696E-004,0.249,0.000,0.000,0.224,0.000
! <AirFlow Model>, Simple
 AirFlow Model, Simple
! <RoomAir Model>, Zone Name, Mixing/Mundt/UCSDDV/UCSDCV/UCSDUFI/UCSDUFE/User Defined
RoomAir Model,CORRIDORFLR1 ZN,Mixing/Well-Stirred
RoomAir Model,CORRIDORFLR2 ZN,Mixing/Well-Stirred
RoomAir Model,CORRIDORFLR3 ZN,Mixing/Well-Stirred
RoomAir Model,CORRIDORFLR4 ZN,Mixing/Well-Stirred
RoomAir Model,ELEVATORCOREFLR1 ZN,Mixing/Well-Stirred
RoomAir Model,ELEVATORCOREFLR2 ZN,Mixing/Well-Stirred
RoomAir Model,ELEVATORCOREFLR3 ZN,Mixing/Well-Stirred
RoomAir Model,ELEVATORCOREFLR4 ZN,Mixing/Well-Stirred
RoomAir Model,EMPLOYEELOUNGEFLR1 ZN,Mixing/Well-Stirred
RoomAir Model,EXERCISECENTERFLR1 ZN,Mixing/Well-Stirred
RoomAir Model,FRONTLOUNGEFLR1 ZN,Mixing/Well-Stirred
RoomAir Model,FRONTOFFICEFLR1 ZN,Mixing/Well-Stirred
RoomAir Model,FRONTSTAIRSFLR1 ZN,Mixing/Well-Stirred
RoomAir Model,FRONTSTAIRSFLR2 ZN,Mixing/Well-Stirred
RoomAir Model,FRONTSTAIRSFLR3 ZN,Mixing/Well-Stirred
RoomAir Model,FRONTSTAIRSFLR4 ZN,Mixing/Well-Stirred
RoomAir Model,FRONTSTORAGEFLR1 ZN,Mixing/Well-Stirred
RoomAir Model,FRONTSTORAGEFLR2 ZN,Mixing/Well-Stirred
RoomAir Model,FRONTSTORAGEFLR3 ZN,Mixing/Well-Stirred
RoomAir Model,FRONTSTORAGEFLR4 ZN,Mixing/Well-Stirred
RoomAir Model,GUESTROOM101 ZN,Mixing/Well-Stirred
RoomAir Model,GUESTROOM102 ZN,Mixing/Well-Stirred
RoomAir Model,GUESTROOM103 ZN,Mixing/Well-Stirred
RoomAir Model,GUESTROOM104 ZN,Mixing/Well-Stirred
RoomAir Model,GUESTROOM105 ZN,Mixing/Well-Stirred
RoomAir Model,GUESTROOM201 ZN,Mixing/Well-Stirred
RoomAir Model,GUESTROOM202_205 ZN,Mixing/Well-Stirred
RoomAir Model,GUESTROOM206_208 ZN,Mixing/Well-Stirred
RoomAir Model,GUESTROOM209_212 ZN,Mixing/Well-Stirred
RoomAir Model,GUESTROOM213 ZN,Mixing/Well-Stirred
RoomAir Model,GUESTROOM214 ZN,Mixing/Well-Stirred
RoomAir Model,GUESTROOM215_218 ZN,Mixing/Well-Stirred
RoomAir Model,GUESTROOM219 ZN,Mixing/Well-Stirred
RoomAir Model,GUESTROOM220_223 ZN,Mixing/Well-Stirred
RoomAir Model,GUESTROOM224 ZN,Mixing/Well-Stirred
RoomAir Model,GUESTROOM301 ZN,Mixing/Well-Stirred
RoomAir Model,GUESTROOM302_305 ZN,Mixing/Well-Stirred
RoomAir Model,GUESTROOM306_308 ZN,Mixing/Well-Stirred
RoomAir Model,GUESTROOM309_312 ZN,Mixing/Well-Stirred
RoomAir Model,GUESTROOM313 ZN,Mixing/Well-Stirred
RoomAir Model,GUESTROOM314 ZN,Mixing/Well-Stirred
RoomAir Model,GUESTROOM315_318 ZN,Mixing/Well-Stirred
RoomAir Model,GUESTROOM319 ZN,Mixing/Well-Stirred
RoomAir Model,GUESTROOM320_323 ZN,Mixing/Well-Stirred
RoomAir Model,GUESTROOM324 ZN,Mixing/Well-Stirred
RoomAir Model,GUESTROOM401 ZN,Mixing/Well-Stirred
RoomAir Model,GUESTROOM402_405 ZN,Mixing/Well-Stirred
RoomAir Model,GUESTROOM406_408 ZN,Mixing/Well-Stirred
RoomAir Model,GUESTROOM409_412 ZN,Mixing/Well-Stirred
RoomAir Model,GUESTROOM413 ZN,Mixing/Well-Stirred
RoomAir Model,GUESTROOM414 ZN,Mixing/Well-Stirred
RoomAir Model,GUESTROOM415_418 ZN,Mixing/Well-Stirred
RoomAir Model,GUESTROOM419 ZN,Mixing/Well-Stirred
RoomAir Model,GUESTROOM420_423 ZN,Mixing/Well-Stirred
RoomAir Model,GUESTROOM424 ZN,Mixing/Well-Stirred
RoomAir Model,LAUNDRYROOMFLR1 ZN,Mixing/Well-Stirred
RoomAir Model,MECHANICALROOMFLR1 ZN,Mixing/Well-Stirred
RoomAir Model,MEETINGROOMFLR1 ZN,Mixing/Well-Stirred
RoomAir Model,REARSTAIRSFLR1 ZN,Mixing/Well-Stirred
RoomAir Model,REARSTAIRSFLR2 ZN,Mixing/Well-Stirred
RoomAir Model,REARSTAIRSFLR3 ZN,Mixing/Well-Stirred
RoomAir Model,REARSTAIRSFLR4 ZN,Mixing/Well-Stirred
RoomAir Model,REARSTORAGEFLR1 ZN,Mixing/Well-Stirred
RoomAir Model,REARSTORAGEFLR2 ZN,Mixing/Well-Stirred
RoomAir Model,REARSTORAGEFLR3 ZN,Mixing/Well-Stirred
RoomAir Model,REARSTORAGEFLR4 ZN,Mixing/Well-Stirred
RoomAir Model,RESTROOMFLR1 ZN,Mixing/Well-Stirred
! <AirflowNetwork Model:Control>, No Multizone or Distribution/Multizone with Distribution/Multizone without Distribution/Multizone with Distribution only during Fan Operation
AirflowNetwork Model:Control,NoMultizoneOrDistribution
! <Zone Volume Capacitance Multiplier>, Sensible Heat Capacity Multiplier, Moisture Capacity Multiplier, Carbon Dioxide Capacity Multiplier, Generic Contaminant Capacity Multiplier
Zone Volume Capacitance Multiplier,   1.000 ,   1.000,   1.000,   1.000
! <Load Timesteps in Zone Design Calculation Averaging Window>, Value
 Load Timesteps in Zone Design Calculation Averaging Window,    4
! <Heating Sizing Factor Information>, Sizing Factor ID, Value
[...]
 Controller:MechanicalVentilation,CONTROLLER MECHANICAL VENTILATION 3,ALWAYS ON DISCRETE,No,ZoneSum,1.00,1,FRONTOFFICEFLR1 ZN,SMALLHOTEL OFFICE VENTILATION,FRONTOFFICEFLR1 ZN DESIGN SPEC ZONE AIR DIST
 Controller:MechanicalVentilation,CONTROLLER MECHANICAL VENTILATION 4,ALWAYS ON DISCRETE,No,ZoneSum,1.00,1,MEETINGROOMFLR1 ZN,SMALLHOTEL MEETING VENTILATION,MEETINGROOMFLR1 ZN DESIGN SPEC ZONE AIR DIST
 Component Sizing Information, Controller:OutdoorAir, EXERCISECENTERFLR1 ZN - EMPLOYEELOUNGEFLR1 ZN - RESTROOMFLR1 ZN SAC OA SYS CONTROLLER, Maximum Outdoor Air Flow Rate [m3/s], 0.85553
 Component Sizing Information, Controller:OutdoorAir, EXERCISECENTERFLR1 ZN - EMPLOYEELOUNGEFLR1 ZN - RESTROOMFLR1 ZN SAC OA SYS CONTROLLER, Minimum Outdoor Air Flow Rate [m3/s], 0.15959
 Component Sizing Information, Coil:Cooling:DX:SingleSpeed, EXERCISECENTERFLR1 ZN - EMPLOYEELOUNGEFLR1 ZN - RESTROOMFLR1 ZN SAC 1SPD DX AC CLG COIL 53KBTU/HR 13.0SEER, Design Size Rated Air Flow Rate [m3/s], 0.85553
 Component Sizing Information, Coil:Cooling:DX:SingleSpeed, EXERCISECENTERFLR1 ZN - EMPLOYEELOUNGEFLR1 ZN - RESTROOMFLR1 ZN SAC 1SPD DX AC CLG COIL 53KBTU/HR 13.0SEER, Design Size Gross Rated Total Cooling Capacity [W], 14936.10962
 Component Sizing Information, Coil:Cooling:DX:SingleSpeed, EXERCISECENTERFLR1 ZN - EMPLOYEELOUNGEFLR1 ZN - RESTROOMFLR1 ZN SAC 1SPD DX AC CLG COIL 53KBTU/HR 13.0SEER, Design Size Gross Rated Sensible Heat Ratio, 0.80060
 DX Cooling Coil Standard Rating Information, Coil:Cooling:DX:SingleSpeed, EXERCISECENTERFLR1 ZN - EMPLOYEELOUNGEFLR1 ZN - RESTROOMFLR1 ZN SAC 1SPD DX AC CLG COIL 53KBTU/HR 13.0SEER, 14272.1, 3.00, 10.24, 10.85, 10.16
 Component Sizing Information, Coil:Heating:Fuel, EXERCISECENTERFLR1 ZN - EMPLOYEELOUNGEFLR1 ZN - RESTROOMFLR1 ZN SAC GAS HTG COIL, Design Size Nominal Capacity [W], 30143.96129
 Component Sizing Information, Coil:Heating:Fuel, EXERCISECENTERFLR1 ZN - EMPLOYEELOUNGEFLR1 ZN - RESTROOMFLR1 ZN PSZ-AC GAS BACKUP HTG COIL, Design Size Nominal Capacity [W], 30143.96129
 Component Sizing Information, Fan:ConstantVolume, EXERCISECENTERFLR1 ZN - EMPLOYEELOUNGEFLR1 ZN - RESTROOMFLR1 ZN SAC FAN, Design Size Maximum Flow Rate [m3/s], 0.85553
 Component Sizing Information, Controller:OutdoorAir, FRONTLOUNGEFLR1 ZN SAC OA SYS CONTROLLER, Maximum Outdoor Air Flow Rate [m3/s], 0.88031
 Component Sizing Information, Controller:OutdoorAir, FRONTLOUNGEFLR1 ZN SAC OA SYS CONTROLLER, Minimum Outdoor Air Flow Rate [m3/s], 0.23607
 Component Sizing Information, Coil:Cooling:DX:SingleSpeed, FRONTLOUNGEFLR1 ZN SAC 1SPD DX AC CLG COIL 60KBTU/HR 13.0SEER, Design Size Rated Air Flow Rate [m3/s], 0.88031
 Component Sizing Information, Coil:Cooling:DX:SingleSpeed, FRONTLOUNGEFLR1 ZN SAC 1SPD DX AC CLG COIL 60KBTU/HR 13.0SEER, Design Size Gross Rated Total Cooling Capacity [W], 16758.69155
 Component Sizing Information, Coil:Cooling:DX:SingleSpeed, FRONTLOUNGEFLR1 ZN SAC 1SPD DX AC CLG COIL 60KBTU/HR 13.0SEER, Design Size Gross Rated Sensible Heat Ratio, 0.79269
 DX Cooling Coil Standard Rating Information, Coil:Cooling:DX:SingleSpeed, FRONTLOUNGEFLR1 ZN SAC 1SPD DX AC CLG COIL 60KBTU/HR 13.0SEER, 16075.3, 3.05, 10.40, 11.03, 10.39
 Component Sizing Information, Coil:Heating:Fuel, FRONTLOUNGEFLR1 ZN SAC GAS HTG COIL, Design Size Nominal Capacity [W], 33799.48340
 Component Sizing Information, Coil:Heating:Fuel, FRONTLOUNGEFLR1 ZN PSZ-AC GAS BACKUP HTG COIL, Design Size Nominal Capacity [W], 33799.48340
 Component Sizing Information, Fan:ConstantVolume, FRONTLOUNGEFLR1 ZN SAC FAN, Design Size Maximum Flow Rate [m3/s], 0.88031
 Component Sizing Information, Controller:OutdoorAir, FRONTOFFICEFLR1 ZN SAC OA SYS CONTROLLER, Maximum Outdoor Air Flow Rate [m3/s], 0.37326
 Component Sizing Information, Controller:OutdoorAir, FRONTOFFICEFLR1 ZN SAC OA SYS CONTROLLER, Minimum Outdoor Air Flow Rate [m3/s], 6.34122E-002
 Component Sizing Information, Coil:Cooling:DX:SingleSpeed, FRONTOFFICEFLR1 ZN SAC 1SPD DX AC CLG COIL 24KBTU/HR 13.0SEER, Design Size Rated Air Flow Rate [m3/s], 0.37326
 Component Sizing Information, Coil:Cooling:DX:SingleSpeed, FRONTOFFICEFLR1 ZN SAC 1SPD DX AC CLG COIL 24KBTU/HR 13.0SEER, Design Size Gross Rated Total Cooling Capacity [W], 6442.12901
 Component Sizing Information, Coil:Cooling:DX:SingleSpeed, FRONTOFFICEFLR1 ZN SAC 1SPD DX AC CLG COIL 24KBTU/HR 13.0SEER, Design Size Gross Rated Sensible Heat Ratio, 0.80063
 DX Cooling Coil Standard Rating Information, Coil:Cooling:DX:SingleSpeed, FRONTOFFICEFLR1 ZN SAC 1SPD DX AC CLG COIL 24KBTU/HR 13.0SEER, 6152.4, 3.00, 10.22, 10.83, 10.12
 Component Sizing Information, Coil:Heating:Fuel, FRONTOFFICEFLR1 ZN SAC GAS HTG COIL, Design Size Nominal Capacity [W], 12911.60032
 Component Sizing Information, Coil:Heating:Fuel, FRONTOFFICEFLR1 ZN PSZ-AC GAS BACKUP HTG COIL, Design Size Nominal Capacity [W], 12911.60032
 Component Sizing Information, Fan:ConstantVolume, FRONTOFFICEFLR1 ZN SAC FAN, Design Size Maximum Flow Rate [m3/s], 0.37326
 Component Sizing Information, Controller:OutdoorAir, MEETINGROOMFLR1 ZN SAC OA SYS CONTROLLER, Maximum Outdoor Air Flow Rate [m3/s], 0.42496
 Component Sizing Information, Controller:OutdoorAir, MEETINGROOMFLR1 ZN SAC OA SYS CONTROLLER, Minimum Outdoor Air Flow Rate [m3/s], 0.12642
 Component Sizing Information, Coil:Cooling:DX:SingleSpeed, MEETINGROOMFLR1 ZN SAC 1SPD DX AC CLG COIL 31KBTU/HR 13.0SEER, Design Size Rated Air Flow Rate [m3/s], 0.42496
 Component Sizing Information, Coil:Cooling:DX:SingleSpeed, MEETINGROOMFLR1 ZN SAC 1SPD DX AC CLG COIL 31KBTU/HR 13.0SEER, Design Size Gross Rated Total Cooling Capacity [W], 8927.42729
 Component Sizing Information, Coil:Cooling:DX:SingleSpeed, MEETINGROOMFLR1 ZN SAC 1SPD DX AC CLG COIL 31KBTU/HR 13.0SEER, Design Size Gross Rated Sensible Heat Ratio, 0.75370
 DX Cooling Coil Standard Rating Information, Coil:Cooling:DX:SingleSpeed, MEETINGROOMFLR1 ZN SAC 1SPD DX AC CLG COIL 31KBTU/HR 13.0SEER, 8597.4, 3.10, 10.57, 11.21, 10.65
 Component Sizing Information, Coil:Heating:Fuel, MEETINGROOMFLR1 ZN SAC GAS HTG COIL, Design Size Nominal Capacity [W], 16798.45717
 Component Sizing Information, Coil:Heating:Fuel, MEETINGROOMFLR1 ZN PSZ-AC GAS BACKUP HTG COIL, Design Size Nominal Capacity [W], 16798.45717
 Component Sizing Information, Fan:ConstantVolume, MEETINGROOMFLR1 ZN SAC FAN, Design Size Maximum Flow Rate [m3/s], 0.42496
Water Heater Information,WaterHeater:Mixed,200.0GAL NATURAL GAS WATER HEATER - 200KBTU/HR 0.807 THERM EFF,0.7570,58614.2,0.804,0.4597
Water Heater Information,WaterHeater:Mixed,300.0GAL NATURAL GAS WATER HEATER - 300KBTU/HR 0.806 THERM EFF,1.1356,87921.3,0.564,0.4311
 Component Sizing Information, PlantLoop, LAUNDRY SERVICE WATER LOOP, Maximum Loop Flow Rate [m3/s], 1.29335E-004
 Component Sizing Information, PlantLoop, LAUNDRY SERVICE WATER LOOP, Plant Loop Volume [m3], 1.55202E-002
 Component Sizing Information, Pump:ConstantSpeed, SERVICE WATER LOOP PUMP 1, Design Flow Rate [m3/s], 1.29335E-004
 Component Sizing Information, Pump:ConstantSpeed, SERVICE WATER LOOP PUMP 1, Design Power Consumption [W], 1.93934E-007
 Component Sizing Information, WaterHeater:Mixed, 200.0GAL NATURAL GAS WATER HEATER - 200KBTU/HR 0.807 THERM EFF, Use Side Design Flow Rate [m3/s], 1.29335E-004
 Component Sizing Information, PlantLoop, MAIN SERVICE WATER LOOP, Maximum Loop Flow Rate [m3/s], 1.81367E-004
 Component Sizing Information, PlantLoop, MAIN SERVICE WATER LOOP, Plant Loop Volume [m3], 2.17641E-002
 Component Sizing Information, Pump:ConstantSpeed, SERVICE WATER LOOP PUMP, Design Flow Rate [m3/s], 1.81367E-004
 Component Sizing Information, Pump:ConstantSpeed, SERVICE WATER LOOP PUMP, Design Power Consumption [W], 8.12902
 Component Sizing Information, WaterHeater:Mixed, 300.0GAL NATURAL GAS WATER HEATER - 300KBTU/HR 0.806 THERM EFF, Use Side Design Flow Rate [m3/s], 1.81367E-004
! <Environment>,Environment Name,Environment Type, Start Date, End Date, Start DayOfWeek, Duration {#days}, Source:Start DayOfWeek,  Use Daylight Saving, Use Holidays, Apply Weekend Holiday Rule,  Use Rain Values, Use Snow Values
! <Environment:Special Days>, Special Day Name, Special Day Type, Source, Start Date, Duration {#days}
! <Environment:Daylight Saving>, Daylight Saving Indicator, Source, Start Date, End Date
! <Environment:WarmupDays>, NumberofWarmupDays
Environment,RUN PERIOD 1,WeatherFileRunPeriod,01/01,12/31,Sunday,365,Use RunPeriod Specified Day,No,No,Yes,Yes,Yes
Environment:Daylight Saving,No,RunPeriod Object
Environment:WarmupDays,  6
! <Tabular Report>,Style,Unit Conversion
Tabular Report,HTML,None
! <Warmup Convergence Information>,Zone Name,Environment Type/Name,Average Warmup Temperature Difference {deltaC},Std Dev Warmup Temperature Difference {deltaC},Max Temperature Pass/Fail Convergence,Min Temperature Pass/Fail Convergence,Average Warmup Load Difference {W},Std Dev Warmup Load Difference {W},Heating Load Pass/Fail Convergence,Cooling Load Pass/Fail Convergence
 Warmup Convergence Information,CORRIDORFLR1 ZN,RunPeriod: RUN PERIOD 1,0.1416154545,0.3236533801,Pass,Pass,0.3017081731,1.5892812079,Pass,Pass
 Warmup Convergence Information,CORRIDORFLR2 ZN,RunPeriod: RUN PERIOD 1,2.9149738354E-002,2.2025923607E-002,Pass,Pass,5.5278513764E-002,5.7003150164E-002,Pass,Pass
 Warmup Convergence Information,CORRIDORFLR3 ZN,RunPeriod: RUN PERIOD 1,1.0072402493E-006,1.5053968270E-006,Pass,Pass,1.0914825193,5.0451800589,Pass,Pass
 Warmup Convergence Information,CORRIDORFLR4 ZN,RunPeriod: RUN PERIOD 1,4.5877147068E-006,7.7645065488E-006,Pass,Pass,0.3827349262,1.5604089812,Pass,Pass
 Warmup Convergence Information,ELEVATORCOREFLR1 ZN,RunPeriod: RUN PERIOD 1,1.5803734713,2.4682536912,Pass,Pass,0.0000000000,0.0000000000,Pass,Pass
 Warmup Convergence Information,ELEVATORCOREFLR2 ZN,RunPeriod: RUN PERIOD 1,7.6130896620E-002,5.1864338505E-002,Pass,Pass,0.0000000000,0.0000000000,Pass,Pass
 Warmup Convergence Information,ELEVATORCOREFLR3 ZN,RunPeriod: RUN PERIOD 1,3.8083944528E-002,4.1367593691E-002,Pass,Pass,0.0000000000,0.0000000000,Pass,Pass
 Warmup Convergence Information,ELEVATORCOREFLR4 ZN,RunPeriod: RUN PERIOD 1,5.1467254122E-002,3.5564084160E-002,Pass,Pass,0.0000000000,0.0000000000,Pass,Pass
 Warmup Convergence Information,EMPLOYEELOUNGEFLR1 ZN,RunPeriod: RUN PERIOD 1,0.2087740203,0.3034417026,Pass,Pass,5.0972963496E-002,0.1129584568,Pass,Pass
 Warmup Convergence Information,EXERCISECENTERFLR1 ZN,RunPeriod: RUN PERIOD 1,9.8357491842E-002,0.1669454028,Pass,Pass,0.1565176123,0.3865870857,Pass,Pass
 Warmup Convergence Information,FRONTLOUNGEFLR1 ZN,RunPeriod: RUN PERIOD 1,1.7175038056E-002,7.7648534632E-002,Pass,Pass,0.1644552691,0.3848770819,Pass,Pass
 Warmup Convergence Information,FRONTOFFICEFLR1 ZN,RunPeriod: RUN PERIOD 1,3.8067930741E-002,6.1297364705E-002,Pass,Pass,3.3719232323E-002,4.8690327800E-002,Pass,Pass
 Warmup Convergence Information,FRONTSTAIRSFLR1 ZN,RunPeriod: RUN PERIOD 1,9.3995602847E-002,9.4586976768E-002,Pass,Pass,6.2944074846E-002,8.6225566746E-002,Pass,Pass
 Warmup Convergence Information,FRONTSTAIRSFLR2 ZN,RunPeriod: RUN PERIOD 1,0.1016234421,0.1034126921,Pass,Pass,6.6549053823E-002,9.3683701639E-002,Pass,Pass
 Warmup Convergence Information,FRONTSTAIRSFLR3 ZN,RunPeriod: RUN PERIOD 1,0.1036928093,0.1068701641,Pass,Pass,6.7830881397E-002,9.6896317073E-002,Pass,Pass
 Warmup Convergence Information,FRONTSTAIRSFLR4 ZN,RunPeriod: RUN PERIOD 1,0.1118436910,0.1054368985,Pass,Pass,6.7305165506E-002,8.7080911425E-002,Pass,Pass
 Warmup Convergence Information,FRONTSTORAGEFLR1 ZN,RunPeriod: RUN PERIOD 1,3.1585153678E-002,2.6732726525E-002,Pass,Pass,0.0000000000,0.0000000000,Pass,Pass
 Warmup Convergence Information,FRONTSTORAGEFLR2 ZN,RunPeriod: RUN PERIOD 1,3.0431285455E-002,2.4775118039E-002,Pass,Pass,0.0000000000,0.0000000000,Pass,Pass
 Warmup Convergence Information,FRONTSTORAGEFLR3 ZN,RunPeriod: RUN PERIOD 1,2.9292123482E-002,2.7302924637E-002,Pass,Pass,0.0000000000,0.0000000000,Pass,Pass
 Warmup Convergence Information,FRONTSTORAGEFLR4 ZN,RunPeriod: RUN PERIOD 1,5.3659536805E-002,3.9139538196E-002,Pass,Pass,0.0000000000,0.0000000000,Pass,Pass
 Warmup Convergence Information,GUESTROOM101 ZN,RunPeriod: RUN PERIOD 1,4.9910365860E-003,9.7014044170E-003,Pass,Pass,2.2521946469E-002,1.6034212090E-002,Pass,Pass
 Warmup Convergence Information,GUESTROOM102 ZN,RunPeriod: RUN PERIOD 1,1.7245414242E-003,6.0100939207E-003,Pass,Pass,2.2484785962E-002,1.6226748193E-002,Pass,Pass
 Warmup Convergence Information,GUESTROOM103 ZN,RunPeriod: RUN PERIOD 1,1.1609419324E-002,3.3269480944E-002,Pass,Pass,1.7405181432,15.1793876330,Pass,Pass
 Warmup Convergence Information,GUESTROOM104 ZN,RunPeriod: RUN PERIOD 1,3.9748068685E-002,0.1822144493,Pass,Pass,0.3571272872,0.9850858286,Pass,Pass
 Warmup Convergence Information,GUESTROOM105 ZN,RunPeriod: RUN PERIOD 1,4.6300448183E-002,0.2707892215,Pass,Pass,0.1690363483,0.5538677764,Pass,Pass
 Warmup Convergence Information,GUESTROOM201 ZN,RunPeriod: RUN PERIOD 1,9.8593366076E-004,6.6858118899E-003,Pass,Pass,0.3342053028,0.6492783777,Pass,Pass
 Warmup Convergence Information,GUESTROOM202_205 ZN,RunPeriod: RUN PERIOD 1,3.5814381397E-002,0.1590662159,Pass,Pass,0.1640770268,0.4413424091,Pass,Pass
 Warmup Convergence Information,GUESTROOM206_208 ZN,RunPeriod: RUN PERIOD 1,3.9956228047E-002,0.1832269986,Pass,Pass,9.6588217419E-002,0.2092138464,Pass,Pass
 Warmup Convergence Information,GUESTROOM209_212 ZN,RunPeriod: RUN PERIOD 1,4.1199466517E-002,0.1852413113,Pass,Pass,0.1096646125,0.3397936970,Pass,Pass
 Warmup Convergence Information,GUESTROOM213 ZN,RunPeriod: RUN PERIOD 1,1.6336447390E-002,5.2999481498E-002,Pass,Pass,0.1931240860,0.4347034460,Pass,Pass
 Warmup Convergence Information,GUESTROOM214 ZN,RunPeriod: RUN PERIOD 1,4.6299857520E-002,0.2602553300,Pass,Pass,7.8607264596E-002,0.1189568399,Pass,Pass
 Warmup Convergence Information,GUESTROOM215_218 ZN,RunPeriod: RUN PERIOD 1,4.6735757165E-006,7.4407433324E-006,Pass,Pass,4.9859370257E-002,4.2855104805E-002,Pass,Pass
 Warmup Convergence Information,GUESTROOM219 ZN,RunPeriod: RUN PERIOD 1,4.6304444729E-002,0.3042363359,Pass,Pass,3.9434196960E-002,0.1250963192,Pass,Pass
 Warmup Convergence Information,GUESTROOM220_223 ZN,RunPeriod: RUN PERIOD 1,4.6304293415E-002,0.2669016067,Pass,Pass,1.0040862057,6.8426319224,Pass,Pass
 Warmup Convergence Information,GUESTROOM224 ZN,RunPeriod: RUN PERIOD 1,4.7028169774E-002,0.2487189176,Pass,Pass,8.9168543739E-002,0.1491601040,Pass,Pass
 Warmup Convergence Information,GUESTROOM301 ZN,RunPeriod: RUN PERIOD 1,7.3126144003E-006,1.2095077528E-005,Pass,Pass,5.9656290298E-002,5.4155024984E-002,Pass,Pass
 Warmup Convergence Information,GUESTROOM302_305 ZN,RunPeriod: RUN PERIOD 1,1.8779488056E-003,7.9851161061E-003,Pass,Pass,0.6423691700,1.9683175462,Pass,Pass
 Warmup Convergence Information,GUESTROOM306_308 ZN,RunPeriod: RUN PERIOD 1,4.0343263103E-004,2.7512759353E-003,Pass,Pass,0.5422788489,0.9852739080,Pass,Pass
 Warmup Convergence Information,GUESTROOM309_312 ZN,RunPeriod: RUN PERIOD 1,3.6158785710E-002,0.1589941745,Pass,Pass,0.1251616407,0.3103420819,Pass,Pass
 Warmup Convergence Information,GUESTROOM313 ZN,RunPeriod: RUN PERIOD 1,4.1708352033E-006,6.8279260884E-006,Pass,Pass,4.1198510290E-002,3.1426034998E-002,Pass,Pass
 Warmup Convergence Information,GUESTROOM314 ZN,RunPeriod: RUN PERIOD 1,3.4772527237E-002,0.1592431429,Pass,Pass,0.1890755707,0.4070776207,Pass,Pass
 Warmup Convergence Information,GUESTROOM315_318 ZN,RunPeriod: RUN PERIOD 1,4.6304464845E-002,0.2735824674,Pass,Pass,0.6956871543,5.8572549708,Pass,Pass
 Warmup Convergence Information,GUESTROOM319 ZN,RunPeriod: RUN PERIOD 1,3.9375348647E-002,3.5304326274E-002,Pass,Pass,2.9542927363E-002,2.5065394630E-002,Pass,Pass
 Warmup Convergence Information,GUESTROOM320_323 ZN,RunPeriod: RUN PERIOD 1,4.6301855849E-002,0.2591454568,Pass,Pass,0.1517124939,0.3395138472,Pass,Pass
 Warmup Convergence Information,GUESTROOM324 ZN,RunPeriod: RUN PERIOD 1,1.9268866619E-002,3.6398148607E-002,Pass,Pass,3.8253626426E-002,3.2424672082E-002,Pass,Pass
 Warmup Convergence Information,GUESTROOM401 ZN,RunPeriod: RUN PERIOD 1,1.9122213466E-002,4.0166145924E-002,Pass,Pass,5.1874806403E-002,8.7840356885E-002,Pass,Pass
 Warmup Convergence Information,GUESTROOM402_405 ZN,RunPeriod: RUN PERIOD 1,7.1596935064E-006,1.2100082566E-005,Pass,Pass,5.0011970755E-002,7.0722965538E-002,Pass,Pass
 Warmup Convergence Information,GUESTROOM406_408 ZN,RunPeriod: RUN PERIOD 1,6.6398356203E-006,1.1336893146E-005,Pass,Pass,6.5574299745E-002,9.8689197922E-002,Pass,Pass
 Warmup Convergence Information,GUESTROOM409_412 ZN,RunPeriod: RUN PERIOD 1,4.7087167918E-002,0.1909540344,Pass,Pass,0.4436509155,1.4084943671,Pass,Pass
 Warmup Convergence Information,GUESTROOM413 ZN,RunPeriod: RUN PERIOD 1,7.8659052071E-006,1.2684746848E-005,Pass,Pass,3.2018228494E-002,3.5485909692E-002,Pass,Pass
 Warmup Convergence Information,GUESTROOM414 ZN,RunPeriod: RUN PERIOD 1,2.0474906410E-002,4.8934420901E-002,Pass,Pass,0.1399331433,0.3206734530,Pass,Pass
 Warmup Convergence Information,GUESTROOM415_418 ZN,RunPeriod: RUN PERIOD 1,4.6296933068E-002,0.2704624164,Pass,Pass,0.4020710420,1.0570408765,Pass,Pass
 Warmup Convergence Information,GUESTROOM419 ZN,RunPeriod: RUN PERIOD 1,4.6296190299E-002,0.2721616229,Pass,Pass,0.8072844124,5.0901882749,Pass,Pass
 Warmup Convergence Information,GUESTROOM420_423 ZN,RunPeriod: RUN PERIOD 1,4.6296942471E-002,0.2688839834,Pass,Pass,0.4376640311,1.2978783905,Pass,Pass
 Warmup Convergence Information,GUESTROOM424 ZN,RunPeriod: RUN PERIOD 1,4.6298608717E-002,0.2106081766,Pass,Pass,0.3028698294,1.0257562005,Pass,Pass
 Warmup Convergence Information,LAUNDRYROOMFLR1 ZN,RunPeriod: RUN PERIOD 1,1.2074164189,3.6655100059,Pass,Pass,0.0000000000,0.0000000000,Pass,Pass
 Warmup Convergence Information,MECHANICALROOMFLR1 ZN,RunPeriod: RUN PERIOD 1,2.2525245251E-002,1.6710336266E-002,Pass,Pass,1.3426772798E-002,1.4529201341E-002,Pass,Pass
 Warmup Convergence Information,MEETINGROOMFLR1 ZN,RunPeriod: RUN PERIOD 1,3.5894485406E-004,1.6756923740E-003,Pass,Pass,0.4258849369,2.0372515536,Pass,Pass
 Warmup Convergence Information,REARSTAIRSFLR1 ZN,RunPeriod: RUN PERIOD 1,9.4413621086E-002,9.7373761381E-002,Pass,Pass,6.5182712007E-002,9.0090405517E-002,Pass,Pass
 Warmup Convergence Information,REARSTAIRSFLR2 ZN,RunPeriod: RUN PERIOD 1,0.1059522623,0.1103802184,Pass,Pass,7.1454800124E-002,0.1015599249,Pass,Pass
 Warmup Convergence Information,REARSTAIRSFLR3 ZN,RunPeriod: RUN PERIOD 1,0.1094152485,0.1148264930,Pass,Pass,7.3053089151E-002,0.1054752230,Pass,Pass
 Warmup Convergence Information,REARSTAIRSFLR4 ZN,RunPeriod: RUN PERIOD 1,0.1108745748,0.1130097240,Pass,Pass,6.8769527610E-002,9.4015138223E-002,Pass,Pass
 Warmup Convergence Information,REARSTORAGEFLR1 ZN,RunPeriod: RUN PERIOD 1,9.1511725956E-002,9.6271161854E-002,Pass,Pass,0.0000000000,0.0000000000,Pass,Pass
 Warmup Convergence Information,REARSTORAGEFLR2 ZN,RunPeriod: RUN PERIOD 1,0.1003685797,0.1055529067,Pass,Pass,0.0000000000,0.0000000000,Pass,Pass
 Warmup Convergence Information,REARSTORAGEFLR3 ZN,RunPeriod: RUN PERIOD 1,0.1015210822,0.1086777191,Pass,Pass,0.0000000000,0.0000000000,Pass,Pass
 Warmup Convergence Information,REARSTORAGEFLR4 ZN,RunPeriod: RUN PERIOD 1,0.1047403068,0.1067889473,Pass,Pass,0.0000000000,0.0000000000,Pass,Pass
 Warmup Convergence Information,RESTROOMFLR1 ZN,RunPeriod: RUN PERIOD 1,5.3602661189E-002,5.8115523562E-002,Pass,Pass,0.1100933993,0.2564707896,Pass,Pass
! <Program Control Information:Threads/Parallel Sims>, Threading Supported,Maximum Number of Threads, Env Set Threads (OMP_NUM_THREADS), EP Env Set Threads (EP_OMP_NUM_THREADS), IDF Set Threads, Number of Threads Used (Interior Radiant Exchange), Number Nominal Surfaces, Number Parallel Sims
Program Control:Threads/Parallel Sims, No,1, N/A, N/A, N/A, N/A, N/A, N/A
End of Data
