Program Version,EnergyPlus, Version 9.1.0-fafb9d5652, YMD=2019.10.17 17:26
! <Version>, Version ID
 Version, 9.1
! <Timesteps per Hour>, #TimeSteps, Minutes per TimeStep {minutes}
 Timesteps per Hour,  6, 10
! <System Convergence Limits>, Minimum System TimeStep {minutes}, Max HVAC Iterations, Minimum Plant Iterations, Maximum Plant Iterations
 System Convergence Limits, 1, 20, 2, 8
! <Simulation Control>, Do Zone Sizing, Do System Sizing, Do Plant Sizing, Do Design Days, Do Weather Simulation, Do HVAC Sizing Simulation
 Simulation Control, Yes, No, No, Yes, No, No
! <Output Reporting Tolerances>, Tolerance for Time Heating Setpoint Not Met, Tolerance for Zone Cooling Setpoint Not Met Time
 Output Reporting Tolerances, 0.200, 0.200, 
! <Site:GroundTemperature:BuildingSurface>,Jan{C},Feb{C},Mar{C},Apr{C},May{C},Jun{C},Jul{C},Aug{C},Sep{C},Oct{C},Nov{C},Dec{C}
 Site:GroundTemperature:BuildingSurface,  18.00,  18.00,  18.00,  18.00,  18.00,  18.00,  18.00,  18.00,  18.00,  18.00,  18.00,  18.00
! <Site:GroundTemperature:FCfactorMethod>,Jan{C},Feb{C},Mar{C},Apr{C},May{C},Jun{C},Jul{C},Aug{C},Sep{C},Oct{C},Nov{C},Dec{C}
 Site:GroundTemperature:FCfactorMethod,  -5.97,  -7.23,  -4.99,  -1.50,   7.64,  14.69,  19.45,  20.90,  18.43,  12.96,   5.64,  -1.15
! <Site:GroundTemperature:Shallow>,Jan{C},Feb{C},Mar{C},Apr{C},May{C},Jun{C},Jul{C},Aug{C},Sep{C},Oct{C},Nov{C},Dec{C}
 Site:GroundTemperature:Shallow,  13.00,  13.00,  13.00,  13.00,  13.00,  13.00,  13.00,  13.00,  13.00,  13.00,  13.00,  13.00
! <Site:GroundTemperature:Deep>,Jan{C},Feb{C},Mar{C},Apr{C},May{C},Jun{C},Jul{C},Aug{C},Sep{C},Oct{C},Nov{C},Dec{C}
 Site:GroundTemperature:Deep,  16.00,  16.00,  16.00,  16.00,  16.00,  16.00,  16.00,  16.00,  16.00,  16.00,  16.00,  16.00
! <Site:GroundReflectance>,Jan{dimensionless},Feb{dimensionless},Mar{dimensionless},Apr{dimensionless},May{dimensionless},Jun{dimensionless},Jul{dimensionless},Aug{dimensionless},Sep{dimensionless},Oct{dimensionless},Nov{dimensionless},Dec{dimensionless}
 Site:GroundReflectance,  0.20,  0.20,  0.20,  0.20,  0.20,  0.20,  0.20,  0.20,  0.20,  0.20,  0.20,  0.20
! <Site:GroundReflectance:SnowModifier>, Normal, Daylighting {dimensionless}
 Site:GroundReflectance:SnowModifier,   1.000,   1.000
! <Site:GroundReflectance:Snow>,Jan{dimensionless},Feb{dimensionless},Mar{dimensionless},Apr{dimensionless},May{dimensionless},Jun{dimensionless},Jul{dimensionless},Aug{dimensionless},Sep{dimensionless},Oct{dimensionless},Nov{dimensionless},Dec{dimensionless}
 Site:GroundReflectance:Snow,  0.20,  0.20,  0.20,  0.20,  0.20,  0.20,  0.20,  0.20,  0.20,  0.20,  0.20,  0.20
! <Site:GroundReflectance:Snow:Daylighting>,Jan{dimensionless},Feb{dimensionless},Mar{dimensionless},Apr{dimensionless},May{dimensionless},Jun{dimensionless},Jul{dimensionless},Aug{dimensionless},Sep{dimensionless},Oct{dimensionless},Nov{dimensionless},Dec{dimensionless}
 Site:GroundReflectance:Snow:Daylighting,  0.20,  0.20,  0.20,  0.20,  0.20,  0.20,  0.20,  0.20,  0.20,  0.20,  0.20,  0.20
! <Environment:Weather Station>,Wind Sensor Height Above Ground {m},Wind Speed Profile Exponent {},Wind Speed Profile Boundary Layer Thickness {m},Air Temperature Sensor Height Above Ground {m},Wind Speed Modifier Coefficient-Internal,Temperature Modifier Coefficient-Internal
Environment:Weather Station,10.000,0.140,270.000,1.500,1.586,9.750E-003
! <Site:Location>, Location Name, Latitude {N+/S- Deg}, Longitude {E+/W- Deg},  Time Zone Number {GMT+/-}, Elevation {m},  Standard Pressure at Elevation {Pa}, Standard RhoAir at Elevation
Site:Location,Ottawa=Macdonald-Cartier Intl AP ON CAN CWEC2016 WMO#=716280,45.32,-75.67,-5.00,114.90,99952,1.1880
! <Site Water Mains Temperature Information>,Calculation Method{},Water Mains Temperature Schedule Name{},Annual Average Outdoor Air Temperature{C},Maximum Difference In Monthly Average Outdoor Air Temperatures{deltaC},Fixed Default Water Mains Temperature{C}
Site Water Mains Temperature Information,Correlation,NA,6.83,31.20,NA
! <Building Information>, Building Name,North Axis {deg},Terrain,  Loads Convergence Tolerance Value,Temperature Convergence Tolerance Value,  Solar Distribution,Maximum Number of Warmup Days,Minimum Number of Warmup Days
 Building Information,rectangular,0.000,Suburbs,4.00000E-002,0.40000,FullExterior,25,6
! <Inside Convection Algorithm>, Algorithm {Simple | TARP | CeilingDiffuser | AdaptiveConvectionAlgorithm}
Inside Convection Algorithm,TARP
! <Outside Convection Algorithm>, Algorithm {SimpleCombined | TARP | MoWitt | DOE-2 | AdaptiveConvectionAlgorithm}
Outside Convection Algorithm,TARP
! <Sky Radiance Distribution>, Value {Anisotropic}
Sky Radiance Distribution,Anisotropic
! <Zone Air Solution Algorithm>, Value {ThirdOrderBackwardDifference | AnalyticalSolution | EulerMethod}
 Zone Air Solution Algorithm, ThirdOrderBackwardDifference
! <Zone Air Carbon Dioxide Balance Simulation>, Simulation {Yes/No}, Carbon Dioxide Concentration
 Zone Air Carbon Dioxide Balance Simulation, No,N/A
! <Zone Air Generic Contaminant Balance Simulation>, Simulation {Yes/No}, Generic Contaminant Concentration
 Zone Air Generic Contaminant Balance Simulation, No,N/A
! <Zone Air Mass Flow Balance Simulation>, Enforce Mass Balance, Adjust Zone Mixing, Adjust Zone Infiltration {AddInfiltration | AdjustInfiltration | None}, Infiltration Zones {MixingSourceZonesOnly | AllZones}
 Zone Air Mass Flow Balance Simulation, No,N/A,N/A,N/A
! <HVACSystemRootFindingAlgorithm>, Value {RegulaFalsi | Bisection | BisectionThenRegulaFalsi | RegulaFalsiThenBisection}
 HVACSystemRootFindingAlgorithm, RegulaFalsi
! <Environment:Site Atmospheric Variation>,Wind Speed Profile Exponent {},Wind Speed Profile Boundary Layer Thickness {m},Air Temperature Gradient Coefficient {K/m}
Environment:Site Atmospheric Variation,0.220,370.000,6.500000E-003
! <Surface Geometry>,Starting Corner,Vertex Input Direction,Coordinate System,Daylight Reference Point Coordinate System,Rectangular (Simple) Surface Coordinate System
 Surface Geometry,UpperLeftCorner,Counterclockwise,RelativeCoordinateSystem,RelativeCoordinateSystem,RelativeToZoneOrigin
! <Surface Heat Transfer Algorithm>, Value {CTF - ConductionTransferFunction | EMPD - MoisturePenetrationDepthConductionTransferFunction | CondFD - ConductionFiniteDifference | HAMT - CombinedHeatAndMoistureFiniteElement} - Description,Inside Surface Max Temperature Limit{C}, Surface Convection Coefficient Lower Limit {W/m2-K}, Surface Convection Coefficient Upper Limit {W/m2-K}
Surface Heat Transfer Algorithm, CTF - ConductionTransferFunction,200,0.10,1000.0
! <Shading Summary>, Number of Fixed Detached Shades, Number of Building Detached Shades, Number of Attached Shades
 Shading Summary,0,0,0
! <Zone Summary>, Number of Zones, Number of Zone Surfaces, Number of SubSurfaces
 Zone Summary,22,159,27
! <Zone Information>,Zone Name,North Axis {deg},Origin X-Coordinate {m},Origin Y-Coordinate {m},Origin Z-Coordinate {m},Centroid X-Coordinate {m},Centroid Y-Coordinate {m},Centroid Z-Coordinate {m},Type,Zone Multiplier,Zone List Multiplier,Minimum X {m},Maximum X {m},Minimum Y {m},Maximum Y {m},Minimum Z {m},Maximum Z {m},Ceiling Height {m},Volume {m3},Zone Inside Convection Algorithm {Simple-Detailed-CeilingDiffuser-TrombeWall},Zone Outside Convection Algorithm {Simple-Detailed-Tarp-MoWitt-DOE-2-BLAST}, Floor Area {m2},Exterior Gross Wall Area {m2},Exterior Net Wall Area {m2},Exterior Window Area {m2}, Number of Surfaces, Number of SubSurfaces, Number of Shading SubSurfaces,  Part of Total Building Area
 Zone Information, STORY 1 EAST CORE SPACE ZN,0.0,77.12,36.27,0.00,95.71,64.48,1.60,1,1,1,77.12,111.87,1.52,111.87,0.00,3.20,3.20,10337.95,TARP,TARP,3230.61,0.00,0.00,0.00,6,0,0,Yes
 Zone Information, STORY 1 EAST LEFT PERIMETER SPACE ZN,0.0,36.27,36.27,0.00,37.03,74.83,1.60,1,1,1,36.27,37.80,36.27,113.39,0.00,3.20,3.20,368.49,TARP,TARP,115.15,241.90,153.12,88.78,6,1,0,Yes
 Zone Information, STORY 1 EAST RIGHT PERIMETER SPACE ZN,0.0,111.87,1.52,0.00,112.64,56.69,1.60,1,1,1,111.87,113.39,0.00,113.39,0.00,3.20,3.20,545.31,TARP,TARP,170.41,362.85,229.68,133.16,6,1,0,Yes
 Zone Information, STORY 1 NORTH LEFT PERIMETER SPACE ZN,0.0,1.52,111.87,0.00,18.90,112.65,1.60,1,1,1,0.00,37.80,111.87,113.39,0.00,3.20,3.20,176.82,TARP,TARP,55.26,120.95,76.56,44.39,6,1,0,Yes
 Zone Information, STORY 1 NORTH LOWER PERIMETER SPACE ZN,0.0,36.27,36.27,0.00,56.69,37.01,1.60,1,1,1,36.27,77.12,36.27,37.80,0.00,3.20,3.20,191.67,TARP,TARP,59.90,120.95,76.56,44.39,6,1,0,Yes
 Zone Information, STORY 1 NORTH RIGHT PERIMETER SPACE ZN,0.0,77.12,111.87,0.00,94.49,112.65,1.60,1,1,1,75.59,113.39,111.87,113.39,0.00,3.20,3.20,176.82,TARP,TARP,55.26,120.95,76.56,44.39,6,1,0,Yes
 Zone Information, STORY 1 SOUTH CORE SPACE ZN,0.0,1.52,1.52,0.00,56.69,15.95,1.60,1,1,1,1.52,111.87,1.52,36.27,0.00,3.20,3.20,8405.88,TARP,TARP,2626.84,0.00,0.00,0.00,6,0,0,Yes
 Zone Information, STORY 1 SOUTH LOWER PERIMETER SPACE ZN,0.0,0.00,0.00,0.00,56.69,0.75,1.60,1,1,1,0.00,113.39,0.00,1.52,0.00,3.20,3.20,545.31,TARP,TARP,170.41,362.85,229.68,133.16,6,1,0,Yes
 Zone Information, STORY 1 WEST CORE SPACE ZN,0.0,1.52,1.52,0.00,17.68,64.48,1.60,1,1,1,1.52,36.27,1.52,111.87,0.00,3.20,3.20,10337.95,TARP,TARP,3230.61,0.00,0.00,0.00,6,0,0,Yes
 Zone Information, STORY 1 WEST LEFT PERIMETER SPACE ZN,0.0,0.00,0.00,0.00,0.75,56.69,1.60,1,1,1,0.00,1.52,0.00,113.39,0.00,3.20,3.20,545.31,TARP,TARP,170.41,362.85,229.68,133.16,6,1,0,Yes
 Zone Information, STORY 1 WEST RIGHT PERIMETER SPACE ZN,0.0,75.59,37.80,0.00,76.35,74.83,1.60,1,1,1,75.59,77.12,36.27,113.39,0.00,3.20,3.20,368.49,TARP,TARP,115.15,241.90,153.12,88.78,6,1,0,Yes
 Zone Information, STORY 2 EAST CORE SPACE ZN,0.0,77.12,36.27,3.20,95.71,64.48,4.80,1,1,1,77.12,111.87,1.52,111.87,3.20,6.40,3.20,10337.95,TARP,TARP,3230.61,0.00,0.00,64.61,6,1,0,Yes
 Zone Information, STORY 2 EAST LEFT PERIMETER SPACE ZN,0.0,36.27,36.27,3.20,37.03,74.83,4.80,1,1,1,36.27,37.80,36.27,113.39,3.20,6.40,3.20,368.49,TARP,TARP,115.15,241.90,153.12,91.08,6,2,0,Yes
 Zone Information, STORY 2 EAST RIGHT PERIMETER SPACE ZN,0.0,111.87,1.52,3.20,112.64,56.69,4.80,1,1,1,111.87,113.39,0.00,113.39,3.20,6.40,3.20,545.31,TARP,TARP,170.41,362.85,229.68,136.57,6,2,0,Yes
 Zone Information, STORY 2 NORTH LEFT PERIMETER SPACE ZN,0.0,1.52,111.87,3.20,18.90,112.65,4.80,1,1,1,0.00,37.80,111.87,113.39,3.20,6.40,3.20,176.82,TARP,TARP,55.26,120.95,76.56,45.49,6,2,0,Yes
 Zone Information, STORY 2 NORTH LOWER PERIMETER SPACE ZN,0.0,36.27,36.27,3.20,56.69,37.01,4.80,1,1,1,36.27,77.12,36.27,37.80,3.20,6.40,3.20,191.67,TARP,TARP,59.90,120.95,76.56,45.59,6,2,0,Yes
 Zone Information, STORY 2 NORTH RIGHT PERIMETER SPACE ZN,0.0,77.12,111.87,3.20,94.49,112.65,4.80,1,1,1,75.59,113.39,111.87,113.39,3.20,6.40,3.20,176.82,TARP,TARP,55.26,120.95,76.56,45.49,6,2,0,Yes
 Zone Information, STORY 2 SOUTH CORE SPACE ZN,0.0,1.52,1.52,3.20,56.69,15.95,4.80,1,1,1,1.52,111.87,1.52,36.27,3.20,6.40,3.20,8405.88,TARP,TARP,2626.84,0.00,0.00,52.54,6,1,0,Yes
 Zone Information, STORY 2 SOUTH LOWER PERIMETER SPACE ZN,0.0,0.00,0.00,3.20,56.69,0.75,4.80,1,1,1,0.00,113.39,0.00,1.52,3.20,6.40,3.20,545.31,TARP,TARP,170.41,362.85,229.68,136.57,6,2,0,Yes
 Zone Information, STORY 2 WEST CORE SPACE ZN,0.0,1.52,1.52,3.20,17.68,64.48,4.80,1,1,1,1.52,36.27,1.52,111.87,3.20,6.40,3.20,10337.95,TARP,TARP,3230.61,0.00,0.00,64.61,6,1,0,Yes
 Zone Information, STORY 2 WEST LEFT PERIMETER SPACE ZN,0.0,0.00,0.00,3.20,0.75,56.69,4.80,1,1,1,0.00,1.52,0.00,113.39,3.20,6.40,3.20,545.31,TARP,TARP,170.41,362.85,229.68,136.57,6,2,0,Yes
 Zone Information, STORY 2 WEST RIGHT PERIMETER SPACE ZN,0.0,75.59,37.80,3.20,76.35,74.83,4.80,1,1,1,75.59,77.12,36.27,113.39,3.20,6.40,3.20,368.49,TARP,TARP,115.15,241.90,153.12,91.08,6,2,0,Yes
! <Zone Internal Gains Nominal>,Zone Name, Floor Area {m2},# Occupants,Area per Occupant {m2/person},Occupant per Area {person/m2},Interior Lighting {W/m2},Electric Load {W/m2},Gas Load {W/m2},Other Load {W/m2},Hot Water Eq {W/m2},Steam Equipment {W/m2},Sum Loads per Area {W/m2},Outdoor Controlled Baseboard Heat
 Zone Internal Gains Nominal, STORY 1 EAST CORE SPACE ZN,3230.61,129.3,24.991,4.001E-002,8.500,7.503,0.000,0.000,0.000,0.000,16.003,No
 Zone Internal Gains Nominal, STORY 1 EAST LEFT PERIMETER SPACE ZN,115.15,4.6,24.991,4.001E-002,8.500,7.503,0.000,0.000,0.000,0.000,16.003,No
 Zone Internal Gains Nominal, STORY 1 EAST RIGHT PERIMETER SPACE ZN,170.41,6.8,24.991,4.001E-002,8.500,7.503,0.000,0.000,0.000,0.000,16.003,No
 Zone Internal Gains Nominal, STORY 1 NORTH LEFT PERIMETER SPACE ZN,55.26,2.2,24.991,4.001E-002,8.500,7.503,0.000,0.000,0.000,0.000,16.003,No
 Zone Internal Gains Nominal, STORY 1 NORTH LOWER PERIMETER SPACE ZN,59.90,2.4,24.991,4.001E-002,8.500,7.503,0.000,0.000,0.000,0.000,16.003,No
 Zone Internal Gains Nominal, STORY 1 NORTH RIGHT PERIMETER SPACE ZN,55.26,2.2,24.991,4.001E-002,8.500,7.503,0.000,0.000,0.000,0.000,16.003,No
 Zone Internal Gains Nominal, STORY 1 SOUTH CORE SPACE ZN,2626.84,105.1,24.991,4.001E-002,8.500,7.503,0.000,0.000,0.000,0.000,16.003,No
 Zone Internal Gains Nominal, STORY 1 SOUTH LOWER PERIMETER SPACE ZN,170.41,6.8,24.991,4.001E-002,8.500,7.503,0.000,0.000,0.000,0.000,16.003,No
 Zone Internal Gains Nominal, STORY 1 WEST CORE SPACE ZN,3230.61,129.3,24.991,4.001E-002,8.500,7.503,0.000,0.000,0.000,0.000,16.003,No
 Zone Internal Gains Nominal, STORY 1 WEST LEFT PERIMETER SPACE ZN,170.41,6.8,24.991,4.001E-002,8.500,7.503,0.000,0.000,0.000,0.000,16.003,No
 Zone Internal Gains Nominal, STORY 1 WEST RIGHT PERIMETER SPACE ZN,115.15,4.6,24.991,4.001E-002,8.500,7.503,0.000,0.000,0.000,0.000,16.003,No
 Zone Internal Gains Nominal, STORY 2 EAST CORE SPACE ZN,3230.61,129.3,24.991,4.001E-002,8.500,7.503,0.000,0.000,0.000,0.000,16.003,No
 Zone Internal Gains Nominal, STORY 2 EAST LEFT PERIMETER SPACE ZN,115.15,4.6,24.991,4.001E-002,8.500,7.503,0.000,0.000,0.000,0.000,16.003,No
 Zone Internal Gains Nominal, STORY 2 EAST RIGHT PERIMETER SPACE ZN,170.41,6.8,24.991,4.001E-002,8.500,7.503,0.000,0.000,0.000,0.000,16.003,No
 Zone Internal Gains Nominal, STORY 2 NORTH LEFT PERIMETER SPACE ZN,55.26,2.2,24.991,4.001E-002,8.500,7.503,0.000,0.000,0.000,0.000,16.003,No
 Zone Internal Gains Nominal, STORY 2 NORTH LOWER PERIMETER SPACE ZN,59.90,2.4,24.991,4.001E-002,8.500,7.503,0.000,0.000,0.000,0.000,16.003,No
 Zone Internal Gains Nominal, STORY 2 NORTH RIGHT PERIMETER SPACE ZN,55.26,2.2,24.991,4.001E-002,8.500,7.503,0.000,0.000,0.000,0.000,16.003,No
 Zone Internal Gains Nominal, STORY 2 SOUTH CORE SPACE ZN,2626.84,105.1,24.991,4.001E-002,8.500,7.503,0.000,0.000,0.000,0.000,16.003,No
 Zone Internal Gains Nominal, STORY 2 SOUTH LOWER PERIMETER SPACE ZN,170.41,6.8,24.991,4.001E-002,8.500,7.503,0.000,0.000,0.000,0.000,16.003,No
 Zone Internal Gains Nominal, STORY 2 WEST CORE SPACE ZN,3230.61,129.3,24.991,4.001E-002,8.500,7.503,0.000,0.000,0.000,0.000,16.003,No
 Zone Internal Gains Nominal, STORY 2 WEST LEFT PERIMETER SPACE ZN,170.41,6.8,24.991,4.001E-002,8.500,7.503,0.000,0.000,0.000,0.000,16.003,No
 Zone Internal Gains Nominal, STORY 2 WEST RIGHT PERIMETER SPACE ZN,115.15,4.6,24.991,4.001E-002,8.500,7.503,0.000,0.000,0.000,0.000,16.003,No
! <People Internal Gains Nominal>,Name,Schedule Name,Zone Name,Zone Floor Area {m2},# Zone Occupants,Number of People {},People/Floor Area {person/m2},Floor Area per person {m2/person},Fraction Radiant,Fraction Convected,Sensible Fraction Calculation,Activity level,ASHRAE 55 Warnings,Carbon Dioxide Generation Rate,Nominal Minimum Number of People,Nominal Maximum Number of People
 People Internal Gains Nominal, STORY 1 EAST CORE SPACE ZN OFFICE WHOLEBUILDING PEOPLE,NECB-A-OCCUPANCY,STORY 1 EAST CORE SPACE ZN,3230.61,129.3,129.3,4.001E-002,24.991,0.300,0.700,AutoCalculate,NECB-ACTIVITY,No,3.8200E-008,0,116
 People Internal Gains Nominal, STORY 1 EAST LEFT PERIMETER SPACE ZN OFFICE WHOLEBUILDING PEOPLE,NECB-A-OCCUPANCY,STORY 1 EAST LEFT PERIMETER SPACE ZN,115.15,4.6,4.6,4.001E-002,24.991,0.300,0.700,AutoCalculate,NECB-ACTIVITY,No,3.8200E-008,0,4
 People Internal Gains Nominal, STORY 1 EAST RIGHT PERIMETER SPACE ZN OFFICE WHOLEBUILDING PEOPLE,NECB-A-OCCUPANCY,STORY 1 EAST RIGHT PERIMETER SPACE ZN,170.41,6.8,6.8,4.001E-002,24.991,0.300,0.700,AutoCalculate,NECB-ACTIVITY,No,3.8200E-008,0,6
 People Internal Gains Nominal, STORY 1 NORTH LEFT PERIMETER SPACE ZN OFFICE WHOLEBUILDING PEOPLE,NECB-A-OCCUPANCY,STORY 1 NORTH LEFT PERIMETER SPACE ZN,55.26,2.2,2.2,4.001E-002,24.991,0.300,0.700,AutoCalculate,NECB-ACTIVITY,No,3.8200E-008,0,2
 People Internal Gains Nominal, STORY 1 NORTH LOWER PERIMETER SPACE ZN OFFICE WHOLEBUILDING PEOPLE,NECB-A-OCCUPANCY,STORY 1 NORTH LOWER PERIMETER SPACE ZN,59.90,2.4,2.4,4.001E-002,24.991,0.300,0.700,AutoCalculate,NECB-ACTIVITY,No,3.8200E-008,0,2
 People Internal Gains Nominal, STORY 1 NORTH RIGHT PERIMETER SPACE ZN OFFICE WHOLEBUILDING PEOPLE,NECB-A-OCCUPANCY,STORY 1 NORTH RIGHT PERIMETER SPACE ZN,55.26,2.2,2.2,4.001E-002,24.991,0.300,0.700,AutoCalculate,NECB-ACTIVITY,No,3.8200E-008,0,2
 People Internal Gains Nominal, STORY 1 SOUTH CORE SPACE ZN OFFICE WHOLEBUILDING PEOPLE,NECB-A-OCCUPANCY,STORY 1 SOUTH CORE SPACE ZN,2626.84,105.1,105.1,4.001E-002,24.991,0.300,0.700,AutoCalculate,NECB-ACTIVITY,No,3.8200E-008,0,95
 People Internal Gains Nominal, STORY 1 SOUTH LOWER PERIMETER SPACE ZN OFFICE WHOLEBUILDING PEOPLE,NECB-A-OCCUPANCY,STORY 1 SOUTH LOWER PERIMETER SPACE ZN,170.41,6.8,6.8,4.001E-002,24.991,0.300,0.700,AutoCalculate,NECB-ACTIVITY,No,3.8200E-008,0,6
 People Internal Gains Nominal, STORY 1 WEST CORE SPACE ZN OFFICE WHOLEBUILDING PEOPLE,NECB-A-OCCUPANCY,STORY 1 WEST CORE SPACE ZN,3230.61,129.3,129.3,4.001E-002,24.991,0.300,0.700,AutoCalculate,NECB-ACTIVITY,No,3.8200E-008,0,116
 People Internal Gains Nominal, STORY 1 WEST LEFT PERIMETER SPACE ZN OFFICE WHOLEBUILDING PEOPLE,NECB-A-OCCUPANCY,STORY 1 WEST LEFT PERIMETER SPACE ZN,170.41,6.8,6.8,4.001E-002,24.991,0.300,0.700,AutoCalculate,NECB-ACTIVITY,No,3.8200E-008,0,6
 People Internal Gains Nominal, STORY 1 WEST RIGHT PERIMETER SPACE ZN OFFICE WHOLEBUILDING PEOPLE,NECB-A-OCCUPANCY,STORY 1 WEST RIGHT PERIMETER SPACE ZN,115.15,4.6,4.6,4.001E-002,24.991,0.300,0.700,AutoCalculate,NECB-ACTIVITY,No,3.8200E-008,0,4
 People Internal Gains Nominal, STORY 2 EAST CORE SPACE ZN OFFICE WHOLEBUILDING PEOPLE,NECB-A-OCCUPANCY,STORY 2 EAST CORE SPACE ZN,3230.61,129.3,129.3,4.001E-002,24.991,0.300,0.700,AutoCalculate,NECB-ACTIVITY,No,3.8200E-008,0,116
 People Internal Gains Nominal, STORY 2 EAST LEFT PERIMETER SPACE ZN OFFICE WHOLEBUILDING PEOPLE,NECB-A-OCCUPANCY,STORY 2 EAST LEFT PERIMETER SPACE ZN,115.15,4.6,4.6,4.001E-002,24.991,0.300,0.700,AutoCalculate,NECB-ACTIVITY,No,3.8200E-008,0,4
 People Internal Gains Nominal, STORY 2 EAST RIGHT PERIMETER SPACE ZN OFFICE WHOLEBUILDING PEOPLE,NECB-A-OCCUPANCY,STORY 2 EAST RIGHT PERIMETER SPACE ZN,170.41,6.8,6.8,4.001E-002,24.991,0.300,0.700,AutoCalculate,NECB-ACTIVITY,No,3.8200E-008,0,6
 People Internal Gains Nominal, STORY 2 NORTH LEFT PERIMETER SPACE ZN OFFICE WHOLEBUILDING PEOPLE,NECB-A-OCCUPANCY,STORY 2 NORTH LEFT PERIMETER SPACE ZN,55.26,2.2,2.2,4.001E-002,24.991,0.300,0.700,AutoCalculate,NECB-ACTIVITY,No,3.8200E-008,0,2
 People Internal Gains Nominal, STORY 2 NORTH LOWER PERIMETER SPACE ZN OFFICE WHOLEBUILDING PEOPLE,NECB-A-OCCUPANCY,STORY 2 NORTH LOWER PERIMETER SPACE ZN,59.90,2.4,2.4,4.001E-002,24.991,0.300,0.700,AutoCalculate,NECB-ACTIVITY,No,3.8200E-008,0,2
 People Internal Gains Nominal, STORY 2 NORTH RIGHT PERIMETER SPACE ZN OFFICE WHOLEBUILDING PEOPLE,NECB-A-OCCUPANCY,STORY 2 NORTH RIGHT PERIMETER SPACE ZN,55.26,2.2,2.2,4.001E-002,24.991,0.300,0.700,AutoCalculate,NECB-ACTIVITY,No,3.8200E-008,0,2
 People Internal Gains Nominal, STORY 2 SOUTH CORE SPACE ZN OFFICE WHOLEBUILDING PEOPLE,NECB-A-OCCUPANCY,STORY 2 SOUTH CORE SPACE ZN,2626.84,105.1,105.1,4.001E-002,24.991,0.300,0.700,AutoCalculate,NECB-ACTIVITY,No,3.8200E-008,0,95
 People Internal Gains Nominal, STORY 2 SOUTH LOWER PERIMETER SPACE ZN OFFICE WHOLEBUILDING PEOPLE,NECB-A-OCCUPANCY,STORY 2 SOUTH LOWER PERIMETER SPACE ZN,170.41,6.8,6.8,4.001E-002,24.991,0.300,0.700,AutoCalculate,NECB-ACTIVITY,No,3.8200E-008,0,6
 People Internal Gains Nominal, STORY 2 WEST CORE SPACE ZN OFFICE WHOLEBUILDING PEOPLE,NECB-A-OCCUPANCY,STORY 2 WEST CORE SPACE ZN,3230.61,129.3,129.3,4.001E-002,24.991,0.300,0.700,AutoCalculate,NECB-ACTIVITY,No,3.8200E-008,0,116
 People Internal Gains Nominal, STORY 2 WEST LEFT PERIMETER SPACE ZN OFFICE WHOLEBUILDING PEOPLE,NECB-A-OCCUPANCY,STORY 2 WEST LEFT PERIMETER SPACE ZN,170.41,6.8,6.8,4.001E-002,24.991,0.300,0.700,AutoCalculate,NECB-ACTIVITY,No,3.8200E-008,0,6
 People Internal Gains Nominal, STORY 2 WEST RIGHT PERIMETER SPACE ZN OFFICE WHOLEBUILDING PEOPLE,NECB-A-OCCUPANCY,STORY 2 WEST RIGHT PERIMETER SPACE ZN,115.15,4.6,4.6,4.001E-002,24.991,0.300,0.700,AutoCalculate,NECB-ACTIVITY,No,3.8200E-008,0,4
! <Lights Internal Gains Nominal>,Name,Schedule Name,Zone Name,Zone Floor Area {m2},# Zone Occupants,Lighting Level {W},Lights/Floor Area {W/m2},Lights per person {W/person},Fraction Return Air,Fraction Radiant,Fraction Short Wave,Fraction Convected,Fraction Replaceable,End-Use Category,Nominal Minimum Lighting Level {W},Nominal Maximum Lighting Level {W}
 Lights Internal Gains Nominal, STORY 1 EAST CORE SPACE ZN OFFICE WHOLEBUILDING LIGHTS,NECB-A-LIGHTING,STORY 1 EAST CORE SPACE ZN,3230.61,129.3,27459.948,8.500,212.421,0.000,0.500,0.200,0.300,1.000,General,1372.997,24713.953
 Lights Internal Gains Nominal, STORY 1 EAST LEFT PERIMETER SPACE ZN OFFICE WHOLEBUILDING LIGHTS,NECB-A-LIGHTING,STORY 1 EAST LEFT PERIMETER SPACE ZN,115.15,4.6,978.794,8.500,212.421,0.000,0.500,0.200,0.300,1.000,General,48.940,880.914
 Lights Internal Gains Nominal, STORY 1 EAST RIGHT PERIMETER SPACE ZN OFFICE WHOLEBUILDING LIGHTS,NECB-A-LIGHTING,STORY 1 EAST RIGHT PERIMETER SPACE ZN,170.41,6.8,1448.466,8.500,212.421,0.000,0.500,0.200,0.300,1.000,General,72.423,1303.619
 Lights Internal Gains Nominal, STORY 1 NORTH LEFT PERIMETER SPACE ZN OFFICE WHOLEBUILDING LIGHTS,NECB-A-LIGHTING,STORY 1 NORTH LEFT PERIMETER SPACE ZN,55.26,2.2,469.672,8.500,212.421,0.000,0.500,0.200,0.300,1.000,General,23.484,422.705
 Lights Internal Gains Nominal, STORY 1 NORTH LOWER PERIMETER SPACE ZN OFFICE WHOLEBUILDING LIGHTS,NECB-A-LIGHTING,STORY 1 NORTH LOWER PERIMETER SPACE ZN,59.90,2.4,509.121,8.500,212.421,0.000,0.500,0.200,0.300,1.000,General,25.456,458.209
 Lights Internal Gains Nominal, STORY 1 NORTH RIGHT PERIMETER SPACE ZN OFFICE WHOLEBUILDING LIGHTS,NECB-A-LIGHTING,STORY 1 NORTH RIGHT PERIMETER SPACE ZN,55.26,2.2,469.672,8.500,212.421,0.000,0.500,0.200,0.300,1.000,General,23.484,422.705
 Lights Internal Gains Nominal, STORY 1 SOUTH CORE SPACE ZN OFFICE WHOLEBUILDING LIGHTS,NECB-A-LIGHTING,STORY 1 SOUTH CORE SPACE ZN,2626.84,105.1,22327.917,8.500,212.421,0.000,0.500,0.200,0.300,1.000,General,1116.396,20095.125
 Lights Internal Gains Nominal, STORY 1 SOUTH LOWER PERIMETER SPACE ZN OFFICE WHOLEBUILDING LIGHTS,NECB-A-LIGHTING,STORY 1 SOUTH LOWER PERIMETER SPACE ZN,170.41,6.8,1448.466,8.500,212.421,0.000,0.500,0.200,0.300,1.000,General,72.423,1303.619
 Lights Internal Gains Nominal, STORY 1 WEST CORE SPACE ZN OFFICE WHOLEBUILDING LIGHTS,NECB-A-LIGHTING,STORY 1 WEST CORE SPACE ZN,3230.61,129.3,27459.948,8.500,212.421,0.000,0.500,0.200,0.300,1.000,General,1372.997,24713.953
 Lights Internal Gains Nominal, STORY 1 WEST LEFT PERIMETER SPACE ZN OFFICE WHOLEBUILDING LIGHTS,NECB-A-LIGHTING,STORY 1 WEST LEFT PERIMETER SPACE ZN,170.41,6.8,1448.466,8.500,212.421,0.000,0.500,0.200,0.300,1.000,General,72.423,1303.619
 Lights Internal Gains Nominal, STORY 1 WEST RIGHT PERIMETER SPACE ZN OFFICE WHOLEBUILDING LIGHTS,NECB-A-LIGHTING,STORY 1 WEST RIGHT PERIMETER SPACE ZN,115.15,4.6,978.794,8.500,212.421,0.000,0.500,0.200,0.300,1.000,General,48.940,880.914
 Lights Internal Gains Nominal, STORY 2 EAST CORE SPACE ZN OFFICE WHOLEBUILDING LIGHTS,NECB-A-LIGHTING,STORY 2 EAST CORE SPACE ZN,3230.61,129.3,27459.948,8.500,212.421,0.000,0.500,0.200,0.300,1.000,General,1372.997,24713.953
 Lights Internal Gains Nominal, STORY 2 EAST LEFT PERIMETER SPACE ZN OFFICE WHOLEBUILDING LIGHTS,NECB-A-LIGHTING,STORY 2 EAST LEFT PERIMETER SPACE ZN,115.15,4.6,978.794,8.500,212.421,0.000,0.500,0.200,0.300,1.000,General,48.940,880.914
 Lights Internal Gains Nominal, STORY 2 EAST RIGHT PERIMETER SPACE ZN OFFICE WHOLEBUILDING LIGHTS,NECB-A-LIGHTING,STORY 2 EAST RIGHT PERIMETER SPACE ZN,170.41,6.8,1448.466,8.500,212.421,0.000,0.500,0.200,0.300,1.000,General,72.423,1303.619
 Lights Internal Gains Nominal, STORY 2 NORTH LEFT PERIMETER SPACE ZN OFFICE WHOLEBUILDING LIGHTS,NECB-A-LIGHTING,STORY 2 NORTH LEFT PERIMETER SPACE ZN,55.26,2.2,469.672,8.500,212.421,0.000,0.500,0.200,0.300,1.000,General,23.484,422.705
 Lights Internal Gains Nominal, STORY 2 NORTH LOWER PERIMETER SPACE ZN OFFICE WHOLEBUILDING LIGHTS,NECB-A-LIGHTING,STORY 2 NORTH LOWER PERIMETER SPACE ZN,59.90,2.4,509.121,8.500,212.421,0.000,0.500,0.200,0.300,1.000,General,25.456,458.209
 Lights Internal Gains Nominal, STORY 2 NORTH RIGHT PERIMETER SPACE ZN OFFICE WHOLEBUILDING LIGHTS,NECB-A-LIGHTING,STORY 2 NORTH RIGHT PERIMETER SPACE ZN,55.26,2.2,469.672,8.500,212.421,0.000,0.500,0.200,0.300,1.000,General,23.484,422.705
 Lights Internal Gains Nominal, STORY 2 SOUTH CORE SPACE ZN OFFICE WHOLEBUILDING LIGHTS,NECB-A-LIGHTING,STORY 2 SOUTH CORE SPACE ZN,2626.84,105.1,22327.917,8.500,212.421,0.000,0.500,0.200,0.300,1.000,General,1116.396,20095.125
 Lights Internal Gains Nominal, STORY 2 SOUTH LOWER PERIMETER SPACE ZN OFFICE WHOLEBUILDING LIGHTS,NECB-A-LIGHTING,STORY 2 SOUTH LOWER PERIMETER SPACE ZN,170.41,6.8,1448.466,8.500,212.421,0.000,0.500,0.200,0.300,1.000,General,72.423,1303.619
 Lights Internal Gains Nominal, STORY 2 WEST CORE SPACE ZN OFFICE WHOLEBUILDING LIGHTS,NECB-A-LIGHTING,STORY 2 WEST CORE SPACE ZN,3230.61,129.3,27459.948,8.500,212.421,0.000,0.500,0.200,0.300,1.000,General,1372.997,24713.953
 Lights Internal Gains Nominal, STORY 2 WEST LEFT PERIMETER SPACE ZN OFFICE WHOLEBUILDING LIGHTS,NECB-A-LIGHTING,STORY 2 WEST LEFT PERIMETER SPACE ZN,170.41,6.8,1448.466,8.500,212.421,0.000,0.500,0.200,0.300,1.000,General,72.423,1303.619
 Lights Internal Gains Nominal, STORY 2 WEST RIGHT PERIMETER SPACE ZN OFFICE WHOLEBUILDING LIGHTS,NECB-A-LIGHTING,STORY 2 WEST RIGHT PERIMETER SPACE ZN,115.15,4.6,978.794,8.500,212.421,0.000,0.500,0.200,0.300,1.000,General,48.940,880.914
! <ElectricEquipment Internal Gains Nominal>,Name,Schedule Name,Zone Name,Zone Floor Area {m2},# Zone Occupants,Equipment Level {W},Equipment/Floor Area {W/m2},Equipment per person {W/person},Fraction Latent,Fraction Radiant,Fraction Lost,Fraction Convected,End-Use SubCategory,Nominal Minimum Equipment Level {W},Nominal Maximum Equipment Level {W}
 ElectricEquipment Internal Gains Nominal, STORY 1 EAST CORE SPACE ZN OFFICE WHOLEBUILDING ELEC EQUIP,NECB-A-ELECTRIC-EQUIPMENT,STORY 1 EAST CORE SPACE ZN,3230.61,129.3,24238.382,7.503,187.500,0.000,0.500,0.000,0.500,General,4847.676,21814.543
 ElectricEquipment Internal Gains Nominal, STORY 1 EAST LEFT PERIMETER SPACE ZN OFFICE WHOLEBUILDING ELEC EQUIP,NECB-A-ELECTRIC-EQUIPMENT,STORY 1 EAST LEFT PERIMETER SPACE ZN,115.15,4.6,863.963,7.503,187.500,0.000,0.500,0.000,0.500,General,172.793,777.566
 ElectricEquipment Internal Gains Nominal, STORY 1 EAST RIGHT PERIMETER SPACE ZN OFFICE WHOLEBUILDING ELEC EQUIP,NECB-A-ELECTRIC-EQUIPMENT,STORY 1 EAST RIGHT PERIMETER SPACE ZN,170.41,6.8,1278.534,7.503,187.500,0.000,0.500,0.000,0.500,General,255.707,1150.680
 ElectricEquipment Internal Gains Nominal, STORY 1 NORTH LEFT PERIMETER SPACE ZN OFFICE WHOLEBUILDING ELEC EQUIP,NECB-A-ELECTRIC-EQUIPMENT,STORY 1 NORTH LEFT PERIMETER SPACE ZN,55.26,2.2,414.571,7.503,187.500,0.000,0.500,0.000,0.500,General,82.914,373.114
 ElectricEquipment Internal Gains Nominal, STORY 1 NORTH LOWER PERIMETER SPACE ZN OFFICE WHOLEBUILDING ELEC EQUIP,NECB-A-ELECTRIC-EQUIPMENT,STORY 1 NORTH LOWER PERIMETER SPACE ZN,59.90,2.4,449.392,7.503,187.500,0.000,0.500,0.000,0.500,General,89.878,404.453
 ElectricEquipment Internal Gains Nominal, STORY 1 NORTH RIGHT PERIMETER SPACE ZN OFFICE WHOLEBUILDING ELEC EQUIP,NECB-A-ELECTRIC-EQUIPMENT,STORY 1 NORTH RIGHT PERIMETER SPACE ZN,55.26,2.2,414.571,7.503,187.500,0.000,0.500,0.000,0.500,General,82.914,373.114
 ElectricEquipment Internal Gains Nominal, STORY 1 SOUTH CORE SPACE ZN OFFICE WHOLEBUILDING ELEC EQUIP,NECB-A-ELECTRIC-EQUIPMENT,STORY 1 SOUTH CORE SPACE ZN,2626.84,105.1,19708.434,7.503,187.500,0.000,0.500,0.000,0.500,General,3941.687,17737.590
 ElectricEquipment Internal Gains Nominal, STORY 1 SOUTH LOWER PERIMETER SPACE ZN OFFICE WHOLEBUILDING ELEC EQUIP,NECB-A-ELECTRIC-EQUIPMENT,STORY 1 SOUTH LOWER PERIMETER SPACE ZN,170.41,6.8,1278.534,7.503,187.500,0.000,0.500,0.000,0.500,General,255.707,1150.680
 ElectricEquipment Internal Gains Nominal, STORY 1 WEST CORE SPACE ZN OFFICE WHOLEBUILDING ELEC EQUIP,NECB-A-ELECTRIC-EQUIPMENT,STORY 1 WEST CORE SPACE ZN,3230.61,129.3,24238.382,7.503,187.500,0.000,0.500,0.000,0.500,General,4847.676,21814.543
 ElectricEquipment Internal Gains Nominal, STORY 1 WEST LEFT PERIMETER SPACE ZN OFFICE WHOLEBUILDING ELEC EQUIP,NECB-A-ELECTRIC-EQUIPMENT,STORY 1 WEST LEFT PERIMETER SPACE ZN,170.41,6.8,1278.534,7.503,187.500,0.000,0.500,0.000,0.500,General,255.707,1150.680
 ElectricEquipment Internal Gains Nominal, STORY 1 WEST RIGHT PERIMETER SPACE ZN OFFICE WHOLEBUILDING ELEC EQUIP,NECB-A-ELECTRIC-EQUIPMENT,STORY 1 WEST RIGHT PERIMETER SPACE ZN,115.15,4.6,863.963,7.503,187.500,0.000,0.500,0.000,0.500,General,172.793,777.566
 ElectricEquipment Internal Gains Nominal, STORY 2 EAST CORE SPACE ZN OFFICE WHOLEBUILDING ELEC EQUIP,NECB-A-ELECTRIC-EQUIPMENT,STORY 2 EAST CORE SPACE ZN,3230.61,129.3,24238.382,7.503,187.500,0.000,0.500,0.000,0.500,General,4847.676,21814.543
 ElectricEquipment Internal Gains Nominal, STORY 2 EAST LEFT PERIMETER SPACE ZN OFFICE WHOLEBUILDING ELEC EQUIP,NECB-A-ELECTRIC-EQUIPMENT,STORY 2 EAST LEFT PERIMETER SPACE ZN,115.15,4.6,863.963,7.503,187.500,0.000,0.500,0.000,0.500,General,172.793,777.566
 ElectricEquipment Internal Gains Nominal, STORY 2 EAST RIGHT PERIMETER SPACE ZN OFFICE WHOLEBUILDING ELEC EQUIP,NECB-A-ELECTRIC-EQUIPMENT,STORY 2 EAST RIGHT PERIMETER SPACE ZN,170.41,6.8,1278.534,7.503,187.500,0.000,0.500,0.000,0.500,General,255.707,1150.680
 ElectricEquipment Internal Gains Nominal, STORY 2 NORTH LEFT PERIMETER SPACE ZN OFFICE WHOLEBUILDING ELEC EQUIP,NECB-A-ELECTRIC-EQUIPMENT,STORY 2 NORTH LEFT PERIMETER SPACE ZN,55.26,2.2,414.571,7.503,187.500,0.000,0.500,0.000,0.500,General,82.914,373.114
 ElectricEquipment Internal Gains Nominal, STORY 2 NORTH LOWER PERIMETER SPACE ZN OFFICE WHOLEBUILDING ELEC EQUIP,NECB-A-ELECTRIC-EQUIPMENT,STORY 2 NORTH LOWER PERIMETER SPACE ZN,59.90,2.4,449.392,7.503,187.500,0.000,0.500,0.000,0.500,General,89.878,404.453
 ElectricEquipment Internal Gains Nominal, STORY 2 NORTH RIGHT PERIMETER SPACE ZN OFFICE WHOLEBUILDING ELEC EQUIP,NECB-A-ELECTRIC-EQUIPMENT,STORY 2 NORTH RIGHT PERIMETER SPACE ZN,55.26,2.2,414.571,7.503,187.500,0.000,0.500,0.000,0.500,General,82.914,373.114
 ElectricEquipment Internal Gains Nominal, STORY 2 SOUTH CORE SPACE ZN OFFICE WHOLEBUILDING ELEC EQUIP,NECB-A-ELECTRIC-EQUIPMENT,STORY 2 SOUTH CORE SPACE ZN,2626.84,105.1,19708.434,7.503,187.500,0.000,0.500,0.000,0.500,General,3941.687,17737.590
 ElectricEquipment Internal Gains Nominal, STORY 2 SOUTH LOWER PERIMETER SPACE ZN OFFICE WHOLEBUILDING ELEC EQUIP,NECB-A-ELECTRIC-EQUIPMENT,STORY 2 SOUTH LOWER PERIMETER SPACE ZN,170.41,6.8,1278.534,7.503,187.500,0.000,0.500,0.000,0.500,General,255.707,1150.680
 ElectricEquipment Internal Gains Nominal, STORY 2 WEST CORE SPACE ZN OFFICE WHOLEBUILDING ELEC EQUIP,NECB-A-ELECTRIC-EQUIPMENT,STORY 2 WEST CORE SPACE ZN,3230.61,129.3,24238.382,7.503,187.500,0.000,0.500,0.000,0.500,General,4847.676,21814.543
 ElectricEquipment Internal Gains Nominal, STORY 2 WEST LEFT PERIMETER SPACE ZN OFFICE WHOLEBUILDING ELEC EQUIP,NECB-A-ELECTRIC-EQUIPMENT,STORY 2 WEST LEFT PERIMETER SPACE ZN,170.41,6.8,1278.534,7.503,187.500,0.000,0.500,0.000,0.500,General,255.707,1150.680
 ElectricEquipment Internal Gains Nominal, STORY 2 WEST RIGHT PERIMETER SPACE ZN OFFICE WHOLEBUILDING ELEC EQUIP,NECB-A-ELECTRIC-EQUIPMENT,STORY 2 WEST RIGHT PERIMETER SPACE ZN,115.15,4.6,863.963,7.503,187.500,0.000,0.500,0.000,0.500,General,172.793,777.566
! <Shadowing/Sun Position Calculations Annual Simulations>, Calculation Method, Value {days}, Allowable Number Figures in Shadow Overlap {}, Polygon Clipping Algorithm, Sky Diffuse Modeling Algorithm, External Shading Calculation Method, Output External Shading Calculation Results, Disable Self-Shading Within Shading Zone Groups, Disable Self-Shading From Shading Zone Groups to Other Zones
Shadowing/Sun Position Calculations Annual Simulations,AverageOverDaysInFrequency,20,15000,SutherlandHodgman,SimpleSkyDiffuseModeling,InternalCalculation,No,No,No
! <ZoneInfiltration Airflow Stats Nominal>,Name,Schedule Name,Zone Name, Zone Floor Area {m2}, # Zone Occupants,Design Volume Flow Rate {m3/s},Volume Flow Rate/Floor Area {m3/s-m2},Volume Flow Rate/Exterior Surface Area {m3/s-m2},ACH - Air Changes per Hour,Equation A - Constant Term Coefficient {},Equation B - Temperature Term Coefficient {1/C},Equation C - Velocity Term Coefficient {s/m}, Equation D - Velocity Squared Term Coefficient {s2/m2}
 ZoneInfiltration Airflow Stats Nominal, STORY 1 EAST LEFT PERIMETER SPACE INFILTRATION,ALWAYS ON DISCRETE,STORY 1 EAST LEFT PERIMETER SPACE ZN,115.15,4.6,6.047E-002,5.252E-004,2.500E-004,0.591,0.000,0.000,0.224,0.000
 ZoneInfiltration Airflow Stats Nominal, STORY 1 EAST RIGHT PERIMETER SPACE INFILTRATION,ALWAYS ON DISCRETE,STORY 1 EAST RIGHT PERIMETER SPACE ZN,170.41,6.8,9.071E-002,5.323E-004,2.500E-004,0.599,0.000,0.000,0.224,0.000
 ZoneInfiltration Airflow Stats Nominal, STORY 1 NORTH LEFT PERIMETER SPACE INFILTRATION,ALWAYS ON DISCRETE,STORY 1 NORTH LEFT PERIMETER SPACE ZN,55.26,2.2,3.024E-002,5.472E-004,2.500E-004,0.616,0.000,0.000,0.224,0.000
 ZoneInfiltration Airflow Stats Nominal, STORY 1 NORTH LOWER PERIMETER SPACE INFILTRATION,ALWAYS ON DISCRETE,STORY 1 NORTH LOWER PERIMETER SPACE ZN,59.90,2.4,3.024E-002,5.048E-004,2.500E-004,0.568,0.000,0.000,0.224,0.000
 ZoneInfiltration Airflow Stats Nominal, STORY 1 NORTH RIGHT PERIMETER SPACE INFILTRATION,ALWAYS ON DISCRETE,STORY 1 NORTH RIGHT PERIMETER SPACE ZN,55.26,2.2,3.024E-002,5.472E-004,2.500E-004,0.616,0.000,0.000,0.224,0.000
 ZoneInfiltration Airflow Stats Nominal, STORY 1 SOUTH LOWER PERIMETER SPACE INFILTRATION,ALWAYS ON DISCRETE,STORY 1 SOUTH LOWER PERIMETER SPACE ZN,170.41,6.8,9.071E-002,5.323E-004,2.500E-004,0.599,0.000,0.000,0.224,0.000
 ZoneInfiltration Airflow Stats Nominal, STORY 1 WEST LEFT PERIMETER SPACE INFILTRATION,ALWAYS ON DISCRETE,STORY 1 WEST LEFT PERIMETER SPACE ZN,170.41,6.8,9.071E-002,5.323E-004,2.500E-004,0.599,0.000,0.000,0.224,0.000
 ZoneInfiltration Airflow Stats Nominal, STORY 1 WEST RIGHT PERIMETER SPACE INFILTRATION,ALWAYS ON DISCRETE,STORY 1 WEST RIGHT PERIMETER SPACE ZN,115.15,4.6,6.047E-002,5.252E-004,2.500E-004,0.591,0.000,0.000,0.224,0.000
 ZoneInfiltration Airflow Stats Nominal, STORY 2 EAST CORE SPACE INFILTRATION,ALWAYS ON DISCRETE,STORY 2 EAST CORE SPACE ZN,3230.61,129.3,0.808,2.500E-004,2.500E-004,0.281,0.000,0.000,0.224,0.000
 ZoneInfiltration Airflow Stats Nominal, STORY 2 EAST LEFT PERIMETER SPACE INFILTRATION,ALWAYS ON DISCRETE,STORY 2 EAST LEFT PERIMETER SPACE ZN,115.15,4.6,8.926E-002,7.752E-004,2.500E-004,0.872,0.000,0.000,0.224,0.000
 ZoneInfiltration Airflow Stats Nominal, STORY 2 EAST RIGHT PERIMETER SPACE INFILTRATION,ALWAYS ON DISCRETE,STORY 2 EAST RIGHT PERIMETER SPACE ZN,170.41,6.8,0.133,7.823E-004,2.500E-004,0.880,0.000,0.000,0.224,0.000
 ZoneInfiltration Airflow Stats Nominal, STORY 2 NORTH LEFT PERIMETER SPACE INFILTRATION,ALWAYS ON DISCRETE,STORY 2 NORTH LEFT PERIMETER SPACE ZN,55.26,2.2,4.405E-002,7.972E-004,2.500E-004,0.897,0.000,0.000,0.224,0.000
 ZoneInfiltration Airflow Stats Nominal, STORY 2 NORTH LOWER PERIMETER SPACE INFILTRATION,ALWAYS ON DISCRETE,STORY 2 NORTH LOWER PERIMETER SPACE ZN,59.90,2.4,4.521E-002,7.548E-004,2.500E-004,0.849,0.000,0.000,0.224,0.000
 ZoneInfiltration Airflow Stats Nominal, STORY 2 NORTH RIGHT PERIMETER SPACE INFILTRATION,ALWAYS ON DISCRETE,STORY 2 NORTH RIGHT PERIMETER SPACE ZN,55.26,2.2,4.405E-002,7.972E-004,2.500E-004,0.897,0.000,0.000,0.224,0.000
 ZoneInfiltration Airflow Stats Nominal, STORY 2 SOUTH CORE SPACE INFILTRATION,ALWAYS ON DISCRETE,STORY 2 SOUTH CORE SPACE ZN,2626.84,105.1,0.657,2.500E-004,2.500E-004,0.281,0.000,0.000,0.224,0.000
 ZoneInfiltration Airflow Stats Nominal, STORY 2 SOUTH LOWER PERIMETER SPACE INFILTRATION,ALWAYS ON DISCRETE,STORY 2 SOUTH LOWER PERIMETER SPACE ZN,170.41,6.8,0.133,7.823E-004,2.500E-004,0.880,0.000,0.000,0.224,0.000
 ZoneInfiltration Airflow Stats Nominal, STORY 2 WEST CORE SPACE INFILTRATION,ALWAYS ON DISCRETE,STORY 2 WEST CORE SPACE ZN,3230.61,129.3,0.808,2.500E-004,2.500E-004,0.281,0.000,0.000,0.224,0.000
 ZoneInfiltration Airflow Stats Nominal, STORY 2 WEST LEFT PERIMETER SPACE INFILTRATION,ALWAYS ON DISCRETE,STORY 2 WEST LEFT PERIMETER SPACE ZN,170.41,6.8,0.133,7.823E-004,2.500E-004,0.880,0.000,0.000,0.224,0.000
 ZoneInfiltration Airflow Stats Nominal, STORY 2 WEST RIGHT PERIMETER SPACE INFILTRATION,ALWAYS ON DISCRETE,STORY 2 WEST RIGHT PERIMETER SPACE ZN,115.15,4.6,8.926E-002,7.752E-004,2.500E-004,0.872,0.000,0.000,0.224,0.000
! <AirFlow Model>, Simple
 AirFlow Model, Simple
! <RoomAir Model>, Zone Name, Mixing/Mundt/UCSDDV/UCSDCV/UCSDUFI/UCSDUFE/User Defined
RoomAir Model,STORY 1 EAST CORE SPACE ZN,Mixing/Well-Stirred
RoomAir Model,STORY 1 EAST LEFT PERIMETER SPACE ZN,Mixing/Well-Stirred
RoomAir Model,STORY 1 EAST RIGHT PERIMETER SPACE ZN,Mixing/Well-Stirred
RoomAir Model,STORY 1 NORTH LEFT PERIMETER SPACE ZN,Mixing/Well-Stirred
RoomAir Model,STORY 1 NORTH LOWER PERIMETER SPACE ZN,Mixing/Well-Stirred
RoomAir Model,STORY 1 NORTH RIGHT PERIMETER SPACE ZN,Mixing/Well-Stirred
RoomAir Model,STORY 1 SOUTH CORE SPACE ZN,Mixing/Well-Stirred
RoomAir Model,STORY 1 SOUTH LOWER PERIMETER SPACE ZN,Mixing/Well-Stirred
RoomAir Model,STORY 1 WEST CORE SPACE ZN,Mixing/Well-Stirred
RoomAir Model,STORY 1 WEST LEFT PERIMETER SPACE ZN,Mixing/Well-Stirred
RoomAir Model,STORY 1 WEST RIGHT PERIMETER SPACE ZN,Mixing/Well-Stirred
RoomAir Model,STORY 2 EAST CORE SPACE ZN,Mixing/Well-Stirred
RoomAir Model,STORY 2 EAST LEFT PERIMETER SPACE ZN,Mixing/Well-Stirred
RoomAir Model,STORY 2 EAST RIGHT PERIMETER SPACE ZN,Mixing/Well-Stirred
RoomAir Model,STORY 2 NORTH LEFT PERIMETER SPACE ZN,Mixing/Well-Stirred
RoomAir Model,STORY 2 NORTH LOWER PERIMETER SPACE ZN,Mixing/Well-Stirred
RoomAir Model,STORY 2 NORTH RIGHT PERIMETER SPACE ZN,Mixing/Well-Stirred
RoomAir Model,STORY 2 SOUTH CORE SPACE ZN,Mixing/Well-Stirred
RoomAir Model,STORY 2 SOUTH LOWER PERIMETER SPACE ZN,Mixing/Well-Stirred
RoomAir Model,STORY 2 WEST CORE SPACE ZN,Mixing/Well-Stirred
RoomAir Model,STORY 2 WEST LEFT PERIMETER SPACE ZN,Mixing/Well-Stirred
RoomAir Model,STORY 2 WEST RIGHT PERIMETER SPACE ZN,Mixing/Well-Stirred
! <AirflowNetwork Model:Control>, No Multizone or Distribution/Multizone with Distribution/Multizone without Distribution/Multizone with Distribution only during Fan Operation
AirflowNetwork Model:Control,NoMultizoneOrDistribution
! <Zone Volume Capacitance Multiplier>, Sensible Heat Capacity Multiplier, Moisture Capacity Multiplier, Carbon Dioxide Capacity Multiplier, Generic Contaminant Capacity Multiplier
Zone Volume Capacitance Multiplier,   1.000 ,   1.000,   1.000,   1.000
! <Load Timesteps in Zone Design Calculation Averaging Window>, Value
 Load Timesteps in Zone Design Calculation Averaging Window,    6
! <Heating Sizing Factor Information>, Sizing Factor ID, Value
 Heating Sizing Factor Information, Global,   1.2500    
 Heating Sizing Factor Information, Zone STORY 1 EAST CORE SPACE ZN,   1.2500    
 Heating Sizing Factor Information, Zone STORY 1 EAST LEFT PERIMETER SPACE ZN,   1.2500    
 Heating Sizing Factor Information, Zone STORY 1 EAST RIGHT PERIMETER SPACE ZN,   1.2500    
 Heating Sizing Factor Information, Zone STORY 1 NORTH LEFT PERIMETER SPACE ZN,   1.2500    
 Heating Sizing Factor Information, Zone STORY 1 NORTH LOWER PERIMETER SPACE ZN,   1.2500    
 Heating Sizing Factor Information, Zone STORY 1 NORTH RIGHT PERIMETER SPACE ZN,   1.2500    
 Heating Sizing Factor Information, Zone STORY 1 SOUTH CORE SPACE ZN,   1.2500    
 Heating Sizing Factor Information, Zone STORY 1 SOUTH LOWER PERIMETER SPACE ZN,   1.2500    
 Heating Sizing Factor Information, Zone STORY 1 WEST CORE SPACE ZN,   1.2500    
 Heating Sizing Factor Information, Zone STORY 1 WEST LEFT PERIMETER SPACE ZN,   1.2500    
 Heating Sizing Factor Information, Zone STORY 1 WEST RIGHT PERIMETER SPACE ZN,   1.2500    
 Heating Sizing Factor Information, Zone STORY 2 EAST CORE SPACE ZN,   1.2500    
 Heating Sizing Factor Information, Zone STORY 2 EAST LEFT PERIMETER SPACE ZN,   1.2500    
 Heating Sizing Factor Information, Zone STORY 2 EAST RIGHT PERIMETER SPACE ZN,   1.2500    
 Heating Sizing Factor Information, Zone STORY 2 NORTH LEFT PERIMETER SPACE ZN,   1.2500    
 Heating Sizing Factor Information, Zone STORY 2 NORTH LOWER PERIMETER SPACE ZN,   1.2500    
 Heating Sizing Factor Information, Zone STORY 2 NORTH RIGHT PERIMETER SPACE ZN,   1.2500    
 Heating Sizing Factor Information, Zone STORY 2 SOUTH CORE SPACE ZN,   1.2500    
 Heating Sizing Factor Information, Zone STORY 2 SOUTH LOWER PERIMETER SPACE ZN,   1.2500    
 Heating Sizing Factor Information, Zone STORY 2 WEST CORE SPACE ZN,   1.2500    
 Heating Sizing Factor Information, Zone STORY 2 WEST LEFT PERIMETER SPACE ZN,   1.2500    
 Heating Sizing Factor Information, Zone STORY 2 WEST RIGHT PERIMETER SPACE ZN,   1.2500    
! <Cooling Sizing Factor Information>, Sizing Factor ID, Value
 Cooling Sizing Factor Information, Global,   1.1500    
 Cooling Sizing Factor Information, Zone STORY 1 EAST CORE SPACE ZN,   1.1500    
 Cooling Sizing Factor Information, Zone STORY 1 EAST LEFT PERIMETER SPACE ZN,   1.1500    
 Cooling Sizing Factor Information, Zone STORY 1 EAST RIGHT PERIMETER SPACE ZN,   1.1500    
 Cooling Sizing Factor Information, Zone STORY 1 NORTH LEFT PERIMETER SPACE ZN,   1.1500    
 Cooling Sizing Factor Information, Zone STORY 1 NORTH LOWER PERIMETER SPACE ZN,   1.1500    
 Cooling Sizing Factor Information, Zone STORY 1 NORTH RIGHT PERIMETER SPACE ZN,   1.1500    
 Cooling Sizing Factor Information, Zone STORY 1 SOUTH CORE SPACE ZN,   1.1500    
 Cooling Sizing Factor Information, Zone STORY 1 SOUTH LOWER PERIMETER SPACE ZN,   1.1500    
 Cooling Sizing Factor Information, Zone STORY 1 WEST CORE SPACE ZN,   1.1500    
 Cooling Sizing Factor Information, Zone STORY 1 WEST LEFT PERIMETER SPACE ZN,   1.1500    
 Cooling Sizing Factor Information, Zone STORY 1 WEST RIGHT PERIMETER SPACE ZN,   1.1500    
 Cooling Sizing Factor Information, Zone STORY 2 EAST CORE SPACE ZN,   1.1500    
 Cooling Sizing Factor Information, Zone STORY 2 EAST LEFT PERIMETER SPACE ZN,   1.1500    
 Cooling Sizing Factor Information, Zone STORY 2 EAST RIGHT PERIMETER SPACE ZN,   1.1500    
 Cooling Sizing Factor Information, Zone STORY 2 NORTH LEFT PERIMETER SPACE ZN,   1.1500    
 Cooling Sizing Factor Information, Zone STORY 2 NORTH LOWER PERIMETER SPACE ZN,   1.1500    
 Cooling Sizing Factor Information, Zone STORY 2 NORTH RIGHT PERIMETER SPACE ZN,   1.1500    
 Cooling Sizing Factor Information, Zone STORY 2 SOUTH CORE SPACE ZN,   1.1500    
 Cooling Sizing Factor Information, Zone STORY 2 SOUTH LOWER PERIMETER SPACE ZN,   1.1500    
 Cooling Sizing Factor Information, Zone STORY 2 WEST CORE SPACE ZN,   1.1500    
 Cooling Sizing Factor Information, Zone STORY 2 WEST LEFT PERIMETER SPACE ZN,   1.1500    
 Cooling Sizing Factor Information, Zone STORY 2 WEST RIGHT PERIMETER SPACE ZN,   1.1500    
! <Zone Sizing Information>, Zone Name, Load Type, Calc Des Load {W}, User Des Load {W}, Calc Des Air Flow Rate {m3/s}, User Des Air Flow Rate {m3/s}, Design Day Name, Date/Time of Peak, Temperature at Peak {C}, Humidity Ratio at Peak {kgWater/kgDryAir}, Floor Area {m2}, # Occupants, Calc Outdoor Air Flow Rate {m3/s}, Calc DOAS Heat Addition Rate {W}
 Zone Sizing Information, STORY 1 EAST CORE SPACE ZN, Cooling, 48008.63461, 55209.92980, 3.95984, 4.55382, OTTAWA=MACDONALD-CARTIER INTL ANN CLG .4% CONDNS DB=>MWB, 7/21 17:00:00, 29.18600, 1.30168E-002, 3230.61013, 129.27137, 1.29651, 0.00000
 Zone Sizing Information, STORY 1 EAST CORE SPACE ZN, Heating, 22262.24253, 27827.80316, 0.98505, 1.29651, OTTAWA=MACDONALD-CARTIER INTL ANN HTG 99.6% CONDNS DB, 1/21 08:00:00, -24.20000, 4.26780E-004, 3230.61013, 129.27137, 1.29651, 0.00000
 Zone Sizing Information, STORY 1 EAST LEFT PERIMETER SPACE ZN, Cooling, 23810.43020, 27381.99473, 1.96393, 2.25852, OTTAWA=MACDONALD-CARTIER INTL ANN CLG .4% CONDNS DB=>MWB, 7/21 08:50:00, 24.72517, 1.30168E-002, 115.15318, 4.60780, 4.62133E-002, 0.00000
 Zone Sizing Information, STORY 1 EAST LEFT PERIMETER SPACE ZN, Heating, 10480.52827, 13100.66034, 0.47708, 0.59635, OTTAWA=MACDONALD-CARTIER INTL ANN HTG 99.6% CONDNS DB, 1/21 08:00:00, -24.20000, 4.26780E-004, 115.15318, 4.60780, 4.62133E-002, 0.00000
 Zone Sizing Information, STORY 1 EAST RIGHT PERIMETER SPACE ZN, Cooling, 36637.93548, 42133.62580, 3.02198, 3.47528, OTTAWA=MACDONALD-CARTIER INTL ANN CLG .4% CONDNS DB=>MWB, 7/21 09:00:00, 25.04500, 1.30168E-002, 170.40922, 6.81885, 6.83886E-002, 0.00000
 Zone Sizing Information, STORY 1 EAST RIGHT PERIMETER SPACE ZN, Heating, 15739.20098, 19674.00122, 0.71649, 0.89561, OTTAWA=MACDONALD-CARTIER INTL ANN HTG 99.6% CONDNS DB, 1/21 08:00:00, -24.20000, 4.26780E-004, 170.40922, 6.81885, 6.83886E-002, 0.00000
 Zone Sizing Information, STORY 1 NORTH LEFT PERIMETER SPACE ZN, Cooling, 2728.57337, 3137.85938, 0.22507, 0.25883, OTTAWA=MACDONALD-CARTIER INTL ANN CLG .4% CONDNS DB=>MWB, 7/21 15:00:00, 30.60000, 1.30168E-002, 55.25604, 2.21104, 2.21754E-002, 0.00000
 Zone Sizing Information, STORY 1 NORTH LEFT PERIMETER SPACE ZN, Heating, 5380.72633, 6725.90792, 0.24499, 0.30624, OTTAWA=MACDONALD-CARTIER INTL ANN HTG 99.6% CONDNS DB, 1/21 08:00:00, -24.20000, 4.26780E-004, 55.25604, 2.21104, 2.21754E-002, 0.00000
 Zone Sizing Information, STORY 1 NORTH LOWER PERIMETER SPACE ZN, Cooling, 2590.49538, 2979.06969, 0.21368, 0.24573, OTTAWA=MACDONALD-CARTIER INTL ANN CLG .4% CONDNS DB=>MWB, 7/21 15:00:00, 30.60000, 1.30168E-002, 59.89713, 2.39676, 2.40379E-002, 0.00000
 Zone Sizing Information, STORY 1 NORTH LOWER PERIMETER SPACE ZN, Heating, 5305.63946, 6632.04932, 0.24149, 0.30187, OTTAWA=MACDONALD-CARTIER INTL ANN HTG 99.6% CONDNS DB, 1/21 08:00:00, -24.20000, 4.26780E-004, 59.89713, 2.39676, 2.40379E-002, 0.00000
 Zone Sizing Information, STORY 1 NORTH RIGHT PERIMETER SPACE ZN, Cooling, 2729.26365, 3138.65320, 0.22512, 0.25889, OTTAWA=MACDONALD-CARTIER INTL ANN CLG .4% CONDNS DB=>MWB, 7/21 15:00:00, 30.60000, 1.30168E-002, 55.25604, 2.21104, 2.21754E-002, 0.00000
 Zone Sizing Information, STORY 1 NORTH RIGHT PERIMETER SPACE ZN, Heating, 5380.00472, 6725.00589, 0.24496, 0.30620, OTTAWA=MACDONALD-CARTIER INTL ANN HTG 99.6% CONDNS DB, 1/21 08:00:00, -24.20000, 4.26780E-004, 55.25604, 2.21104, 2.21754E-002, 0.00000
 Zone Sizing Information, STORY 1 SOUTH CORE SPACE ZN, Cooling, 36232.16886, 41666.99419, 2.98849, 3.43677, OTTAWA=MACDONALD-CARTIER INTL ANN CLG .4% CONDNS DB=>MWB, 7/21 17:00:00, 29.18600, 1.30168E-002, 2626.83650, 105.11165, 1.05420, 0.00000
 Zone Sizing Information, STORY 1 SOUTH CORE SPACE ZN, Heating, 15811.36238, 19764.20298, 0.70175, 1.05420, OTTAWA=MACDONALD-CARTIER INTL ANN HTG 99.6% CONDNS DB, 1/21 08:00:00, -24.20000, 4.26780E-004, 2626.83650, 105.11165, 1.05420, 0.00000
 Zone Sizing Information, STORY 1 SOUTH LOWER PERIMETER SPACE ZN, Cooling, 17983.79657, 20681.36605, 1.48339, 1.70590, OTTAWA=MACDONALD-CARTIER INTL ANN CLG .4% CONDNS DB=>MWB, 7/21 13:00:00, 30.09500, 1.30168E-002, 170.40922, 6.81885, 6.83886E-002, 0.00000
 Zone Sizing Information, STORY 1 SOUTH LOWER PERIMETER SPACE ZN, Heating, 15635.13660, 19543.92076, 0.71174, 0.88967, OTTAWA=MACDONALD-CARTIER INTL ANN HTG 99.6% CONDNS DB, 1/21 08:00:00, -24.20000, 4.26780E-004, 170.40922, 6.81885, 6.83886E-002, 0.00000
 Zone Sizing Information, STORY 1 WEST CORE SPACE ZN, Cooling, 48967.87321, 56313.05420, 4.03896, 4.64481, OTTAWA=MACDONALD-CARTIER INTL ANN CLG .4% CONDNS DB=>MWB, 7/21 17:00:00, 29.18600, 1.30168E-002, 3230.61013, 129.27137, 1.29651, 0.00000
 Zone Sizing Information, STORY 1 WEST CORE SPACE ZN, Heating, 22329.05393, 27911.31741, 0.98796, 1.29651, OTTAWA=MACDONALD-CARTIER INTL ANN HTG 99.6% CONDNS DB, 1/21 08:00:00, -24.20000, 4.26780E-004, 3230.61013, 129.27137, 1.29651, 0.00000
 Zone Sizing Information, STORY 1 WEST LEFT PERIMETER SPACE ZN, Cooling, 40006.10407, 46007.01968, 3.29989, 3.79487, OTTAWA=MACDONALD-CARTIER INTL ANN CLG .4% CONDNS DB=>MWB, 7/21 17:20:00, 28.84933, 1.30168E-002, 170.40922, 6.81885, 6.83886E-002, 0.00000
 Zone Sizing Information, STORY 1 WEST LEFT PERIMETER SPACE ZN, Heating, 15934.97008, 19918.71261, 0.72544, 0.90680, OTTAWA=MACDONALD-CARTIER INTL ANN HTG 99.6% CONDNS DB, 1/21 08:00:00, -24.20000, 4.26780E-004, 170.40922, 6.81885, 6.83886E-002, 0.00000
 Zone Sizing Information, STORY 1 WEST RIGHT PERIMETER SPACE ZN, Cooling, 26344.95590, 30296.69928, 2.17305, 2.49901, OTTAWA=MACDONALD-CARTIER INTL ANN CLG .4% CONDNS DB=>MWB, 7/21 17:20:00, 28.84933, 1.30168E-002, 115.15318, 4.60780, 4.62133E-002, 0.00000
 Zone Sizing Information, STORY 1 WEST RIGHT PERIMETER SPACE ZN, Heating, 10613.17651, 13266.47064, 0.48314, 0.60392, OTTAWA=MACDONALD-CARTIER INTL ANN HTG 99.6% CONDNS DB, 1/21 08:00:00, -24.20000, 4.26780E-004, 115.15318, 4.60780, 4.62133E-002, 0.00000
 Zone Sizing Information, STORY 2 EAST CORE SPACE ZN, Cooling, 86997.32212, 100046.92044, 7.17626, 8.25270, OTTAWA=MACDONALD-CARTIER INTL ANN CLG .4% CONDNS DB=>MWB, 7/21 12:00:00, 29.28700, 1.30168E-002, 3230.61013, 129.27137, 1.29651, 0.00000
 Zone Sizing Information, STORY 2 EAST CORE SPACE ZN, Heating, 61219.85457, 76524.81821, 2.74581, 3.43227, OTTAWA=MACDONALD-CARTIER INTL ANN HTG 99.6% CONDNS DB, 1/21 08:00:00, -24.20000, 4.26780E-004, 3230.61013, 129.27137, 1.29651, 0.00000
 Zone Sizing Information, STORY 2 EAST LEFT PERIMETER SPACE ZN, Cooling, 25240.96924, 29027.11462, 2.08208, 2.39439, OTTAWA=MACDONALD-CARTIER INTL ANN CLG .4% CONDNS DB=>MWB, 7/21 09:00:00, 25.04500, 1.30168E-002, 115.15318, 4.60780, 4.62133E-002, 0.00000
 Zone Sizing Information, STORY 2 EAST LEFT PERIMETER SPACE ZN, Heating, 12543.99087, 15679.98858, 0.57121, 0.71402, OTTAWA=MACDONALD-CARTIER INTL ANN HTG 99.6% CONDNS DB, 1/21 08:00:00, -24.20000, 4.26780E-004, 115.15318, 4.60780, 4.62133E-002, 0.00000
 Zone Sizing Information, STORY 2 EAST RIGHT PERIMETER SPACE ZN, Cooling, 38251.88336, 43989.66586, 3.15533, 3.62863, OTTAWA=MACDONALD-CARTIER INTL ANN CLG .4% CONDNS DB=>MWB, 7/21 09:00:00, 25.04500, 1.30168E-002, 170.40922, 6.81885, 6.83886E-002, 0.00000
 Zone Sizing Information, STORY 2 EAST RIGHT PERIMETER SPACE ZN, Heating, 18726.44574, 23408.05717, 0.85276, 1.06596, OTTAWA=MACDONALD-CARTIER INTL ANN HTG 99.6% CONDNS DB, 1/21 08:00:00, -24.20000, 4.26780E-004, 170.40922, 6.81885, 6.83886E-002, 0.00000
 Zone Sizing Information, STORY 2 NORTH LEFT PERIMETER SPACE ZN, Cooling, 4080.63466, 4692.72986, 0.33661, 0.38710, OTTAWA=MACDONALD-CARTIER INTL ANN CLG .4% CONDNS DB=>MWB, 7/21 14:20:00, 30.60000, 1.30168E-002, 55.25604, 2.21104, 2.21754E-002, 0.00000
 Zone Sizing Information, STORY 2 NORTH LEFT PERIMETER SPACE ZN, Heating, 6350.67362, 7938.34202, 0.28924, 0.36154, OTTAWA=MACDONALD-CARTIER INTL ANN HTG 99.6% CONDNS DB, 1/21 08:00:00, -24.20000, 4.26780E-004, 55.25604, 2.21104, 2.21754E-002, 0.00000
 Zone Sizing Information, STORY 2 NORTH LOWER PERIMETER SPACE ZN, Cooling, 4149.50092, 4771.92605, 0.34229, 0.39363, OTTAWA=MACDONALD-CARTIER INTL ANN CLG .4% CONDNS DB=>MWB, 7/21 14:20:00, 30.60000, 1.30168E-002, 59.89713, 2.39676, 2.40379E-002, 0.00000
 Zone Sizing Information, STORY 2 NORTH LOWER PERIMETER SPACE ZN, Heating, 6425.08259, 8031.35323, 0.29257, 0.36571, OTTAWA=MACDONALD-CARTIER INTL ANN HTG 99.6% CONDNS DB, 1/21 08:00:00, -24.20000, 4.26780E-004, 59.89713, 2.39676, 2.40379E-002, 0.00000
 Zone Sizing Information, STORY 2 NORTH RIGHT PERIMETER SPACE ZN, Cooling, 4081.06417, 4693.22379, 0.33665, 0.38714, OTTAWA=MACDONALD-CARTIER INTL ANN CLG .4% CONDNS DB=>MWB, 7/21 14:20:00, 30.60000, 1.30168E-002, 55.25604, 2.21104, 2.21754E-002, 0.00000
 Zone Sizing Information, STORY 2 NORTH RIGHT PERIMETER SPACE ZN, Heating, 6349.95776, 7937.44720, 0.28920, 0.36150, OTTAWA=MACDONALD-CARTIER INTL ANN HTG 99.6% CONDNS DB, 1/21 08:00:00, -24.20000, 4.26780E-004, 55.25604, 2.21104, 2.21754E-002, 0.00000
 Zone Sizing Information, STORY 2 SOUTH CORE SPACE ZN, Cooling, 69951.21069, 80443.89230, 5.76992, 6.63541, OTTAWA=MACDONALD-CARTIER INTL ANN CLG .4% CONDNS DB=>MWB, 7/21 14:40:00, 30.60000, 1.30168E-002, 2626.83650, 105.11165, 1.05420, 0.00000
 Zone Sizing Information, STORY 2 SOUTH CORE SPACE ZN, Heating, 49134.00904, 61417.51130, 2.20322, 2.75403, OTTAWA=MACDONALD-CARTIER INTL ANN HTG 99.6% CONDNS DB, 1/21 08:00:00, -24.20000, 4.26780E-004, 2626.83650, 105.11165, 1.05420, 0.00000
 Zone Sizing Information, STORY 2 SOUTH LOWER PERIMETER SPACE ZN, Cooling, 21893.04154, 25176.99777, 1.80597, 2.07686, OTTAWA=MACDONALD-CARTIER INTL ANN CLG .4% CONDNS DB=>MWB, 7/21 13:00:00, 30.09500, 1.30168E-002, 170.40922, 6.81885, 6.83886E-002, 0.00000
 Zone Sizing Information, STORY 2 SOUTH LOWER PERIMETER SPACE ZN, Heating, 18676.49459, 23345.61824, 0.85048, 1.06310, OTTAWA=MACDONALD-CARTIER INTL ANN HTG 99.6% CONDNS DB, 1/21 08:00:00, -24.20000, 4.26780E-004, 170.40922, 6.81885, 6.83886E-002, 0.00000
 Zone Sizing Information, STORY 2 WEST CORE SPACE ZN, Cooling, 87421.78822, 100535.05645, 7.21106, 8.29272, OTTAWA=MACDONALD-CARTIER INTL ANN CLG .4% CONDNS DB=>MWB, 7/21 15:00:00, 30.60000, 1.30168E-002, 3230.61013, 129.27137, 1.29651, 0.00000
 Zone Sizing Information, STORY 2 WEST CORE SPACE ZN, Heating, 61282.18104, 76602.72631, 2.74866, 3.43582, OTTAWA=MACDONALD-CARTIER INTL ANN HTG 99.6% CONDNS DB, 1/21 08:00:00, -24.20000, 4.26780E-004, 3230.61013, 129.27137, 1.29651, 0.00000
 Zone Sizing Information, STORY 2 WEST LEFT PERIMETER SPACE ZN, Cooling, 41853.18227, 48131.15961, 3.45248, 3.97035, OTTAWA=MACDONALD-CARTIER INTL ANN CLG .4% CONDNS DB=>MWB, 7/21 17:10:00, 29.01767, 1.30168E-002, 170.40922, 6.81885, 6.83886E-002, 0.00000
 Zone Sizing Information, STORY 2 WEST LEFT PERIMETER SPACE ZN, Heating, 18930.97605, 23663.72006, 0.86211, 1.07764, OTTAWA=MACDONALD-CARTIER INTL ANN HTG 99.6% CONDNS DB, 1/21 08:00:00, -24.20000, 4.26780E-004, 170.40922, 6.81885, 6.83886E-002, 0.00000
 Zone Sizing Information, STORY 2 WEST RIGHT PERIMETER SPACE ZN, Cooling, 27759.01831, 31922.87105, 2.28984, 2.63332, OTTAWA=MACDONALD-CARTIER INTL ANN CLG .4% CONDNS DB=>MWB, 7/21 17:10:00, 29.01767, 1.30168E-002, 115.15318, 4.60780, 4.62133E-002, 0.00000
 Zone Sizing Information, STORY 2 WEST RIGHT PERIMETER SPACE ZN, Heating, 12678.93012, 15848.66265, 0.57738, 0.72172, OTTAWA=MACDONALD-CARTIER INTL ANN HTG 99.6% CONDNS DB, 1/21 08:00:00, -24.20000, 4.26780E-004, 115.15318, 4.60780, 4.62133E-002, 0.00000
! <Component Sizing Information>, Component Type, Component Name, Input Field Description, Value
 Component Sizing Information, ZoneHVAC:IdealLoadsAirSystem, ZONE HVAC IDEAL LOADS AIR SYSTEM 1, User-Specified Maximum Heating Air Flow Rate [m3/s], 0.00000
 Component Sizing Information, ZoneHVAC:IdealLoadsAirSystem, ZONE HVAC IDEAL LOADS AIR SYSTEM 1, User-Specified Maximum Cooling Air Flow Rate [m3/s], 0.00000
 Component Sizing Information, ZoneHVAC:IdealLoadsAirSystem, ZONE HVAC IDEAL LOADS AIR SYSTEM 2, User-Specified Maximum Heating Air Flow Rate [m3/s], 0.00000
 Component Sizing Information, ZoneHVAC:IdealLoadsAirSystem, ZONE HVAC IDEAL LOADS AIR SYSTEM 2, User-Specified Maximum Cooling Air Flow Rate [m3/s], 0.00000
 Component Sizing Information, ZoneHVAC:IdealLoadsAirSystem, ZONE HVAC IDEAL LOADS AIR SYSTEM 3, User-Specified Maximum Heating Air Flow Rate [m3/s], 0.00000
 Component Sizing Information, ZoneHVAC:IdealLoadsAirSystem, ZONE HVAC IDEAL LOADS AIR SYSTEM 3, User-Specified Maximum Cooling Air Flow Rate [m3/s], 0.00000
 Component Sizing Information, ZoneHVAC:IdealLoadsAirSystem, ZONE HVAC IDEAL LOADS AIR SYSTEM 4, User-Specified Maximum Heating Air Flow Rate [m3/s], 0.00000
 Component Sizing Information, ZoneHVAC:IdealLoadsAirSystem, ZONE HVAC IDEAL LOADS AIR SYSTEM 4, User-Specified Maximum Cooling Air Flow Rate [m3/s], 0.00000
 Component Sizing Information, ZoneHVAC:IdealLoadsAirSystem, ZONE HVAC IDEAL LOADS AIR SYSTEM 5, User-Specified Maximum Heating Air Flow Rate [m3/s], 0.00000
 Component Sizing Information, ZoneHVAC:IdealLoadsAirSystem, ZONE HVAC IDEAL LOADS AIR SYSTEM 5, User-Specified Maximum Cooling Air Flow Rate [m3/s], 0.00000
 Component Sizing Information, ZoneHVAC:IdealLoadsAirSystem, ZONE HVAC IDEAL LOADS AIR SYSTEM 6, User-Specified Maximum Heating Air Flow Rate [m3/s], 0.00000
 Component Sizing Information, ZoneHVAC:IdealLoadsAirSystem, ZONE HVAC IDEAL LOADS AIR SYSTEM 6, User-Specified Maximum Cooling Air Flow Rate [m3/s], 0.00000
 Component Sizing Information, ZoneHVAC:IdealLoadsAirSystem, ZONE HVAC IDEAL LOADS AIR SYSTEM 7, User-Specified Maximum Heating Air Flow Rate [m3/s], 0.00000
 Component Sizing Information, ZoneHVAC:IdealLoadsAirSystem, ZONE HVAC IDEAL LOADS AIR SYSTEM 7, User-Specified Maximum Cooling Air Flow Rate [m3/s], 0.00000
 Component Sizing Information, ZoneHVAC:IdealLoadsAirSystem, ZONE HVAC IDEAL LOADS AIR SYSTEM 8, User-Specified Maximum Heating Air Flow Rate [m3/s], 0.00000
 Component Sizing Information, ZoneHVAC:IdealLoadsAirSystem, ZONE HVAC IDEAL LOADS AIR SYSTEM 8, User-Specified Maximum Cooling Air Flow Rate [m3/s], 0.00000
 Component Sizing Information, ZoneHVAC:IdealLoadsAirSystem, ZONE HVAC IDEAL LOADS AIR SYSTEM 9, User-Specified Maximum Heating Air Flow Rate [m3/s], 0.00000
 Component Sizing Information, ZoneHVAC:IdealLoadsAirSystem, ZONE HVAC IDEAL LOADS AIR SYSTEM 9, User-Specified Maximum Cooling Air Flow Rate [m3/s], 0.00000
 Component Sizing Information, ZoneHVAC:IdealLoadsAirSystem, ZONE HVAC IDEAL LOADS AIR SYSTEM 10, User-Specified Maximum Heating Air Flow Rate [m3/s], 0.00000
 Component Sizing Information, ZoneHVAC:IdealLoadsAirSystem, ZONE HVAC IDEAL LOADS AIR SYSTEM 10, User-Specified Maximum Cooling Air Flow Rate [m3/s], 0.00000
 Component Sizing Information, ZoneHVAC:IdealLoadsAirSystem, ZONE HVAC IDEAL LOADS AIR SYSTEM 11, User-Specified Maximum Heating Air Flow Rate [m3/s], 0.00000
 Component Sizing Information, ZoneHVAC:IdealLoadsAirSystem, ZONE HVAC IDEAL LOADS AIR SYSTEM 11, User-Specified Maximum Cooling Air Flow Rate [m3/s], 0.00000
 Component Sizing Information, ZoneHVAC:IdealLoadsAirSystem, ZONE HVAC IDEAL LOADS AIR SYSTEM 12, User-Specified Maximum Heating Air Flow Rate [m3/s], 0.00000
 Component Sizing Information, ZoneHVAC:IdealLoadsAirSystem, ZONE HVAC IDEAL LOADS AIR SYSTEM 12, User-Specified Maximum Cooling Air Flow Rate [m3/s], 0.00000
 Component Sizing Information, ZoneHVAC:IdealLoadsAirSystem, ZONE HVAC IDEAL LOADS AIR SYSTEM 13, User-Specified Maximum Heating Air Flow Rate [m3/s], 0.00000
 Component Sizing Information, ZoneHVAC:IdealLoadsAirSystem, ZONE HVAC IDEAL LOADS AIR SYSTEM 13, User-Specified Maximum Cooling Air Flow Rate [m3/s], 0.00000
 Component Sizing Information, ZoneHVAC:IdealLoadsAirSystem, ZONE HVAC IDEAL LOADS AIR SYSTEM 14, User-Specified Maximum Heating Air Flow Rate [m3/s], 0.00000
 Component Sizing Information, ZoneHVAC:IdealLoadsAirSystem, ZONE HVAC IDEAL LOADS AIR SYSTEM 14, User-Specified Maximum Cooling Air Flow Rate [m3/s], 0.00000
 Component Sizing Information, ZoneHVAC:IdealLoadsAirSystem, ZONE HVAC IDEAL LOADS AIR SYSTEM 15, User-Specified Maximum Heating Air Flow Rate [m3/s], 0.00000
 Component Sizing Information, ZoneHVAC:IdealLoadsAirSystem, ZONE HVAC IDEAL LOADS AIR SYSTEM 15, User-Specified Maximum Cooling Air Flow Rate [m3/s], 0.00000
 Component Sizing Information, ZoneHVAC:IdealLoadsAirSystem, ZONE HVAC IDEAL LOADS AIR SYSTEM 16, User-Specified Maximum Heating Air Flow Rate [m3/s], 0.00000
 Component Sizing Information, ZoneHVAC:IdealLoadsAirSystem, ZONE HVAC IDEAL LOADS AIR SYSTEM 16, User-Specified Maximum Cooling Air Flow Rate [m3/s], 0.00000
 Component Sizing Information, ZoneHVAC:IdealLoadsAirSystem, ZONE HVAC IDEAL LOADS AIR SYSTEM 17, User-Specified Maximum Heating Air Flow Rate [m3/s], 0.00000
 Component Sizing Information, ZoneHVAC:IdealLoadsAirSystem, ZONE HVAC IDEAL LOADS AIR SYSTEM 17, User-Specified Maximum Cooling Air Flow Rate [m3/s], 0.00000
 Component Sizing Information, ZoneHVAC:IdealLoadsAirSystem, ZONE HVAC IDEAL LOADS AIR SYSTEM 18, User-Specified Maximum Heating Air Flow Rate [m3/s], 0.00000
 Component Sizing Information, ZoneHVAC:IdealLoadsAirSystem, ZONE HVAC IDEAL LOADS AIR SYSTEM 18, User-Specified Maximum Cooling Air Flow Rate [m3/s], 0.00000
 Component Sizing Information, ZoneHVAC:IdealLoadsAirSystem, ZONE HVAC IDEAL LOADS AIR SYSTEM 19, User-Specified Maximum Heating Air Flow Rate [m3/s], 0.00000
 Component Sizing Information, ZoneHVAC:IdealLoadsAirSystem, ZONE HVAC IDEAL LOADS AIR SYSTEM 19, User-Specified Maximum Cooling Air Flow Rate [m3/s], 0.00000
 Component Sizing Information, ZoneHVAC:IdealLoadsAirSystem, ZONE HVAC IDEAL LOADS AIR SYSTEM 20, User-Specified Maximum Heating Air Flow Rate [m3/s], 0.00000
 Component Sizing Information, ZoneHVAC:IdealLoadsAirSystem, ZONE HVAC IDEAL LOADS AIR SYSTEM 20, User-Specified Maximum Cooling Air Flow Rate [m3/s], 0.00000
 Component Sizing Information, ZoneHVAC:IdealLoadsAirSystem, ZONE HVAC IDEAL LOADS AIR SYSTEM 21, User-Specified Maximum Heating Air Flow Rate [m3/s], 0.00000
 Component Sizing Information, ZoneHVAC:IdealLoadsAirSystem, ZONE HVAC IDEAL LOADS AIR SYSTEM 21, User-Specified Maximum Cooling Air Flow Rate [m3/s], 0.00000
 Component Sizing Information, ZoneHVAC:IdealLoadsAirSystem, ZONE HVAC IDEAL LOADS AIR SYSTEM 22, User-Specified Maximum Heating Air Flow Rate [m3/s], 0.00000
 Component Sizing Information, ZoneHVAC:IdealLoadsAirSystem, ZONE HVAC IDEAL LOADS AIR SYSTEM 22, User-Specified Maximum Cooling Air Flow Rate [m3/s], 0.00000
! <Environment>,Environment Name,Environment Type, Start Date, End Date, Start DayOfWeek, Duration {#days}, Source:Start DayOfWeek,  Use Daylight Saving, Use Holidays, Apply Weekend Holiday Rule,  Use Rain Values, Use Snow Values
! <Environment:Special Days>, Special Day Name, Special Day Type, Source, Start Date, Duration {#days}
! <Environment:Daylight Saving>, Daylight Saving Indicator, Source, Start Date, End Date
! <Environment:WarmupDays>, NumberofWarmupDays
Environment,OTTAWA=MACDONALD-CARTIER INTL ANN CLG .4% CONDNS DB=>MWB,SizingPeriod:DesignDay,07/21,07/21,SummerDesignDay,1,N/A,N/A,N/A,N/A,N/A,N/A
Environment:Daylight Saving,No,SizingPeriod:DesignDay
! <Environment:Design Day Data>, Max Dry-Bulb Temp {C}, Temp Range {dC}, Temp Range Ind Type, Hum Ind Value at Max Temp, Hum Ind Type,Pressure {Pa}, Wind Direction {deg CW from N}, Wind Speed {m/s}, Clearness, Rain, Snow
! <Environment:Design Day Misc>,DayOfYear,ASHRAE A Coeff,ASHRAE B Coeff,ASHRAE C Coeff,Solar Constant-Annual Variation,Eq of Time {minutes}, Solar Declination Angle {deg}, Solar Model
Environment:Design Day Data,30.60,10.10,DefaultMultipliers,99952,220,4.6,0.00,No,No
Environment:Design Day Misc,202,1084.4,0.2082,0.1365,1.0,-6.23,20.6,ASHRAETau
Environment:WarmupDays,  6
! <Tabular Report>,Style,Unit Conversion
Tabular Report,HTML,None
! <Warmup Convergence Information>,Zone Name,Environment Type/Name,Average Warmup Temperature Difference {deltaC},Std Dev Warmup Temperature Difference {deltaC},Max Temperature Pass/Fail Convergence,Min Temperature Pass/Fail Convergence,Average Warmup Load Difference {W},Std Dev Warmup Load Difference {W},Heating Load Pass/Fail Convergence,Cooling Load Pass/Fail Convergence
 Warmup Convergence Information,STORY 1 EAST CORE SPACE ZN,SizingPeriod: OTTAWA=MACDONALD-CARTIER INTL ANN CLG .4% CONDNS DB=>MWB,2.5049021776E-002,6.3838422309E-002,Pass,Pass,0.2696124919,2.5792332910,Pass,Pass
 Warmup Convergence Information,STORY 1 EAST LEFT PERIMETER SPACE ZN,SizingPeriod: OTTAWA=MACDONALD-CARTIER INTL ANN CLG .4% CONDNS DB=>MWB,0.1278467003,0.6744128102,Pass,Pass,0.2865545005,2.7513332029,Pass,Pass
 Warmup Convergence Information,STORY 1 EAST RIGHT PERIMETER SPACE ZN,SizingPeriod: OTTAWA=MACDONALD-CARTIER INTL ANN CLG .4% CONDNS DB=>MWB,0.1419040815,0.7375235537,Pass,Pass,0.2859885437,2.7342811428,Pass,Pass
 Warmup Convergence Information,STORY 1 NORTH LEFT PERIMETER SPACE ZN,SizingPeriod: OTTAWA=MACDONALD-CARTIER INTL ANN CLG .4% CONDNS DB=>MWB,4.0904089559E-002,0.1475911734,Pass,Pass,0.3255921975,3.0474278486,Pass,Pass
 Warmup Convergence Information,STORY 1 NORTH LOWER PERIMETER SPACE ZN,SizingPeriod: OTTAWA=MACDONALD-CARTIER INTL ANN CLG .4% CONDNS DB=>MWB,2.2932052770E-002,6.3913364437E-002,Pass,Pass,0.3199644837,3.1381679955,Pass,Pass
 Warmup Convergence Information,STORY 1 NORTH RIGHT PERIMETER SPACE ZN,SizingPeriod: OTTAWA=MACDONALD-CARTIER INTL ANN CLG .4% CONDNS DB=>MWB,4.1133771265E-002,0.1481466144,Pass,Pass,0.3258071524,3.0516309487,Pass,Pass
 Warmup Convergence Information,STORY 1 SOUTH CORE SPACE ZN,SizingPeriod: OTTAWA=MACDONALD-CARTIER INTL ANN CLG .4% CONDNS DB=>MWB,2.0905993952E-002,4.7980801322E-002,Pass,Pass,0.3017917920,2.8613661216,Pass,Pass
 Warmup Convergence Information,STORY 1 SOUTH LOWER PERIMETER SPACE ZN,SizingPeriod: OTTAWA=MACDONALD-CARTIER INTL ANN CLG .4% CONDNS DB=>MWB,2.8360069076E-002,8.6957539722E-002,Pass,Pass,0.2978006337,2.7885024541,Pass,Pass
 Warmup Convergence Information,STORY 1 WEST CORE SPACE ZN,SizingPeriod: OTTAWA=MACDONALD-CARTIER INTL ANN CLG .4% CONDNS DB=>MWB,2.5307345889E-002,6.3982698194E-002,Pass,Pass,0.2633262443,2.5306640586,Pass,Pass
 Warmup Convergence Information,STORY 1 WEST LEFT PERIMETER SPACE ZN,SizingPeriod: OTTAWA=MACDONALD-CARTIER INTL ANN CLG .4% CONDNS DB=>MWB,5.2109798967E-002,0.1981530331,Pass,Pass,0.2949851590,2.6093748592,Pass,Pass
 Warmup Convergence Information,STORY 1 WEST RIGHT PERIMETER SPACE ZN,SizingPeriod: OTTAWA=MACDONALD-CARTIER INTL ANN CLG .4% CONDNS DB=>MWB,4.9703569664E-002,0.1877977116,Pass,Pass,0.2963158156,2.6075615370,Pass,Pass
 Warmup Convergence Information,STORY 2 EAST CORE SPACE ZN,SizingPeriod: OTTAWA=MACDONALD-CARTIER INTL ANN CLG .4% CONDNS DB=>MWB,2.5139271707E-002,5.8699958065E-002,Pass,Pass,0.2958625156,2.6610623338,Pass,Pass
 Warmup Convergence Information,STORY 2 EAST LEFT PERIMETER SPACE ZN,SizingPeriod: OTTAWA=MACDONALD-CARTIER INTL ANN CLG .4% CONDNS DB=>MWB,0.1380822774,0.7231696811,Pass,Pass,0.3168411537,3.0452286592,Pass,Pass
 Warmup Convergence Information,STORY 2 EAST RIGHT PERIMETER SPACE ZN,SizingPeriod: OTTAWA=MACDONALD-CARTIER INTL ANN CLG .4% CONDNS DB=>MWB,0.1427320322,0.7452486760,Pass,Pass,0.3148597977,3.0218106277,Pass,Pass
 Warmup Convergence Information,STORY 2 NORTH LEFT PERIMETER SPACE ZN,SizingPeriod: OTTAWA=MACDONALD-CARTIER INTL ANN CLG .4% CONDNS DB=>MWB,4.1329372912E-002,0.1419780927,Pass,Pass,0.3641331267,3.4385060859,Pass,Pass
 Warmup Convergence Information,STORY 2 NORTH LOWER PERIMETER SPACE ZN,SizingPeriod: OTTAWA=MACDONALD-CARTIER INTL ANN CLG .4% CONDNS DB=>MWB,3.1537246464E-002,9.1678635301E-002,Pass,Pass,0.3694210849,3.5292331770,Pass,Pass
 Warmup Convergence Information,STORY 2 NORTH RIGHT PERIMETER SPACE ZN,SizingPeriod: OTTAWA=MACDONALD-CARTIER INTL ANN CLG .4% CONDNS DB=>MWB,4.1351922584E-002,0.1412817978,Pass,Pass,0.3646479912,3.4458222765,Pass,Pass
 Warmup Convergence Information,STORY 2 SOUTH CORE SPACE ZN,SizingPeriod: OTTAWA=MACDONALD-CARTIER INTL ANN CLG .4% CONDNS DB=>MWB,2.0830947677E-002,4.7644507682E-002,Pass,Pass,0.3077967739,2.8622165739,Pass,Pass
 Warmup Convergence Information,STORY 2 SOUTH LOWER PERIMETER SPACE ZN,SizingPeriod: OTTAWA=MACDONALD-CARTIER INTL ANN CLG .4% CONDNS DB=>MWB,2.7311103337E-002,7.3423277041E-002,Pass,Pass,0.3261883147,3.1043608742,Pass,Pass
 Warmup Convergence Information,STORY 2 WEST CORE SPACE ZN,SizingPeriod: OTTAWA=MACDONALD-CARTIER INTL ANN CLG .4% CONDNS DB=>MWB,2.4751094224E-002,5.8218813401E-002,Pass,Pass,0.2901813023,2.6251782213,Pass,Pass
 Warmup Convergence Information,STORY 2 WEST LEFT PERIMETER SPACE ZN,SizingPeriod: OTTAWA=MACDONALD-CARTIER INTL ANN CLG .4% CONDNS DB=>MWB,4.1969982431E-002,0.1441471521,Pass,Pass,0.3096710145,2.7803217527,Pass,Pass
 Warmup Convergence Information,STORY 2 WEST RIGHT PERIMETER SPACE ZN,SizingPeriod: OTTAWA=MACDONALD-CARTIER INTL ANN CLG .4% CONDNS DB=>MWB,4.0696169556E-002,0.1385991576,Pass,Pass,0.3121172153,2.8104724724,Pass,Pass
Environment,OTTAWA=MACDONALD-CARTIER INTL ANN HTG 99.6% CONDNS DB,SizingPeriod:DesignDay,01/21,01/21,WinterDesignDay,1,N/A,N/A,N/A,N/A,N/A,N/A
Environment:Daylight Saving,No,SizingPeriod:DesignDay
Environment:Design Day Data,-24.20,0.00,DefaultMultipliers,99952,290,3.5,0.00,No,No
Environment:Design Day Misc, 21,1229.0,0.1415,5.7310E-002,1.0,-11.15,-20.1,ASHRAEClearSky
Environment:WarmupDays,  6
 Warmup Convergence Information,STORY 1 EAST CORE SPACE ZN,SizingPeriod: OTTAWA=MACDONALD-CARTIER INTL ANN HTG 99.6% CONDNS DB,6.0740296206E-002,0.3088275673,Pass,Pass,0.2763251869,0.9192468108,Pass,Pass
 Warmup Convergence Information,STORY 1 EAST LEFT PERIMETER SPACE ZN,SizingPeriod: OTTAWA=MACDONALD-CARTIER INTL ANN HTG 99.6% CONDNS DB,5.5555555556E-002,0.3584300380,Pass,Pass,3.3592464004E-002,0.1612271938,Pass,Pass
 Warmup Convergence Information,STORY 1 EAST RIGHT PERIMETER SPACE ZN,SizingPeriod: OTTAWA=MACDONALD-CARTIER INTL ANN HTG 99.6% CONDNS DB,5.5555555556E-002,0.3591237697,Pass,Pass,3.2569146698E-002,0.1546848923,Pass,Pass
 Warmup Convergence Information,STORY 1 NORTH LEFT PERIMETER SPACE ZN,SizingPeriod: OTTAWA=MACDONALD-CARTIER INTL ANN HTG 99.6% CONDNS DB,5.5555555556E-002,0.3607722110,Pass,Pass,3.1314313119E-002,0.1485606070,Pass,Pass
 Warmup Convergence Information,STORY 1 NORTH LOWER PERIMETER SPACE ZN,SizingPeriod: OTTAWA=MACDONALD-CARTIER INTL ANN HTG 99.6% CONDNS DB,5.5555555556E-002,0.3573106376,Pass,Pass,3.5611992192E-002,0.1750394944,Pass,Pass
 Warmup Convergence Information,STORY 1 NORTH RIGHT PERIMETER SPACE ZN,SizingPeriod: OTTAWA=MACDONALD-CARTIER INTL ANN HTG 99.6% CONDNS DB,5.5555555556E-002,0.3607700452,Pass,Pass,3.1316073943E-002,0.1485702345,Pass,Pass
 Warmup Convergence Information,STORY 1 SOUTH CORE SPACE ZN,SizingPeriod: OTTAWA=MACDONALD-CARTIER INTL ANN HTG 99.6% CONDNS DB,6.0768895270E-002,0.3081774063,Pass,Pass,0.3487018658,1.2967717100,Pass,Pass
 Warmup Convergence Information,STORY 1 SOUTH LOWER PERIMETER SPACE ZN,SizingPeriod: OTTAWA=MACDONALD-CARTIER INTL ANN HTG 99.6% CONDNS DB,5.5555555556E-002,0.3590445011,Pass,Pass,3.2644100821E-002,0.1551414394,Pass,Pass
 Warmup Convergence Information,STORY 1 WEST CORE SPACE ZN,SizingPeriod: OTTAWA=MACDONALD-CARTIER INTL ANN HTG 99.6% CONDNS DB,6.0738652098E-002,0.3088350174,Pass,Pass,0.2759175939,0.9178903673,Pass,Pass
 Warmup Convergence Information,STORY 1 WEST LEFT PERIMETER SPACE ZN,SizingPeriod: OTTAWA=MACDONALD-CARTIER INTL ANN HTG 99.6% CONDNS DB,5.5555555556E-002,0.3596432713,Pass,Pass,3.1924220442E-002,0.1508121684,Pass,Pass
 Warmup Convergence Information,STORY 1 WEST RIGHT PERIMETER SPACE ZN,SizingPeriod: OTTAWA=MACDONALD-CARTIER INTL ANN HTG 99.6% CONDNS DB,5.5555555556E-002,0.3589547407,Pass,Pass,3.2883888279E-002,0.1568594231,Pass,Pass
 Warmup Convergence Information,STORY 2 EAST CORE SPACE ZN,SizingPeriod: OTTAWA=MACDONALD-CARTIER INTL ANN HTG 99.6% CONDNS DB,5.7979285128E-002,0.3266206108,Pass,Pass,0.1484793239,0.5039706712,Pass,Pass
 Warmup Convergence Information,STORY 2 EAST LEFT PERIMETER SPACE ZN,SizingPeriod: OTTAWA=MACDONALD-CARTIER INTL ANN HTG 99.6% CONDNS DB,5.5555555556E-002,0.3663800094,Pass,Pass,2.5805720638E-002,0.1086231626,Pass,Pass
 Warmup Convergence Information,STORY 2 EAST RIGHT PERIMETER SPACE ZN,SizingPeriod: OTTAWA=MACDONALD-CARTIER INTL ANN HTG 99.6% CONDNS DB,5.5555555556E-002,0.3667544442,Pass,Pass,2.5313620528E-002,0.1059398439,Pass,Pass
 Warmup Convergence Information,STORY 2 NORTH LEFT PERIMETER SPACE ZN,SizingPeriod: OTTAWA=MACDONALD-CARTIER INTL ANN HTG 99.6% CONDNS DB,5.5555555556E-002,0.3678395834,Pass,Pass,2.4640031646E-002,0.1035361558,Pass,Pass
 Warmup Convergence Information,STORY 2 NORTH LOWER PERIMETER SPACE ZN,SizingPeriod: OTTAWA=MACDONALD-CARTIER INTL ANN HTG 99.6% CONDNS DB,5.5555555556E-002,0.3656798772,Pass,Pass,2.6906884625E-002,0.1153298428,Pass,Pass
 Warmup Convergence Information,STORY 2 NORTH RIGHT PERIMETER SPACE ZN,SizingPeriod: OTTAWA=MACDONALD-CARTIER INTL ANN HTG 99.6% CONDNS DB,5.5555555556E-002,0.3678367971,Pass,Pass,2.4642610985E-002,0.1035504459,Pass,Pass
 Warmup Convergence Information,STORY 2 SOUTH CORE SPACE ZN,SizingPeriod: OTTAWA=MACDONALD-CARTIER INTL ANN HTG 99.6% CONDNS DB,5.8022766357E-002,0.3262902595,Pass,Pass,0.1700108520,0.6136298560,Pass,Pass
 Warmup Convergence Information,STORY 2 SOUTH LOWER PERIMETER SPACE ZN,SizingPeriod: OTTAWA=MACDONALD-CARTIER INTL ANN HTG 99.6% CONDNS DB,5.5555555556E-002,0.3667052379,Pass,Pass,2.5347625667E-002,0.1060696425,Pass,Pass
 Warmup Convergence Information,STORY 2 WEST CORE SPACE ZN,SizingPeriod: OTTAWA=MACDONALD-CARTIER INTL ANN HTG 99.6% CONDNS DB,5.7974900611E-002,0.3266295376,Pass,Pass,0.1477715643,0.5016184730,Pass,Pass
 Warmup Convergence Information,STORY 2 WEST LEFT PERIMETER SPACE ZN,SizingPeriod: OTTAWA=MACDONALD-CARTIER INTL ANN HTG 99.6% CONDNS DB,5.5555555556E-002,0.3671116815,Pass,Pass,2.4950734544E-002,0.1041785366,Pass,Pass
 Warmup Convergence Information,STORY 2 WEST RIGHT PERIMETER SPACE ZN,SizingPeriod: OTTAWA=MACDONALD-CARTIER INTL ANN HTG 99.6% CONDNS DB,5.5555555556E-002,0.3667327493,Pass,Pass,2.5410210993E-002,0.1065296866,Pass,Pass
! <Program Control Information:Threads/Parallel Sims>, Threading Supported,Maximum Number of Threads, Env Set Threads (OMP_NUM_THREADS), EP Env Set Threads (EP_OMP_NUM_THREADS), IDF Set Threads, Number of Threads Used (Interior Radiant Exchange), Number Nominal Surfaces, Number Parallel Sims
Program Control:Threads/Parallel Sims, No,1, N/A, N/A, N/A, N/A, N/A, N/A
End of Data
