Program Version,EnergyPlus, Version 9.1.0-fafb9d5652, YMD=2019.10.28 18:37
! <Version>, Version ID
 Version, 9.1
! <Timesteps per Hour>, #TimeSteps, Minutes per TimeStep {minutes}
 Timesteps per Hour,  6, 10
! <System Convergence Limits>, Minimum System TimeStep {minutes}, Max HVAC Iterations, Minimum Plant Iterations, Maximum Plant Iterations
 System Convergence Limits, 1, 20, 2, 8
! <Simulation Control>, Do Zone Sizing, Do System Sizing, Do Plant Sizing, Do Design Days, Do Weather Simulation, Do HVAC Sizing Simulation
 Simulation Control, Yes, No, No, Yes, No, No
! <Output Reporting Tolerances>, Tolerance for Time Heating Setpoint Not Met, Tolerance for Zone Cooling Setpoint Not Met Time
 Output Reporting Tolerances, 0.200, 0.200, 
! <Site:GroundTemperature:BuildingSurface>,Jan{C},Feb{C},Mar{C},Apr{C},May{C},Jun{C},Jul{C},Aug{C},Sep{C},Oct{C},Nov{C},Dec{C}
 Site:GroundTemperature:BuildingSurface,  18.00,  18.00,  18.00,  18.00,  18.00,  18.00,  18.00,  18.00,  18.00,  18.00,  18.00,  18.00
! <Site:GroundTemperature:FCfactorMethod>,Jan{C},Feb{C},Mar{C},Apr{C},May{C},Jun{C},Jul{C},Aug{C},Sep{C},Oct{C},Nov{C},Dec{C}
 Site:GroundTemperature:FCfactorMethod,  -5.97,  -7.23,  -4.99,  -1.50,   7.64,  14.69,  19.45,  20.90,  18.43,  12.96,   5.64,  -1.15
! <Site:GroundTemperature:Shallow>,Jan{C},Feb{C},Mar{C},Apr{C},May{C},Jun{C},Jul{C},Aug{C},Sep{C},Oct{C},Nov{C},Dec{C}
 Site:GroundTemperature:Shallow,  13.00,  13.00,  13.00,  13.00,  13.00,  13.00,  13.00,  13.00,  13.00,  13.00,  13.00,  13.00
! <Site:GroundTemperature:Deep>,Jan{C},Feb{C},Mar{C},Apr{C},May{C},Jun{C},Jul{C},Aug{C},Sep{C},Oct{C},Nov{C},Dec{C}
 Site:GroundTemperature:Deep,  16.00,  16.00,  16.00,  16.00,  16.00,  16.00,  16.00,  16.00,  16.00,  16.00,  16.00,  16.00
! <Site:GroundReflectance>,Jan{dimensionless},Feb{dimensionless},Mar{dimensionless},Apr{dimensionless},May{dimensionless},Jun{dimensionless},Jul{dimensionless},Aug{dimensionless},Sep{dimensionless},Oct{dimensionless},Nov{dimensionless},Dec{dimensionless}
 Site:GroundReflectance,  0.20,  0.20,  0.20,  0.20,  0.20,  0.20,  0.20,  0.20,  0.20,  0.20,  0.20,  0.20
! <Site:GroundReflectance:SnowModifier>, Normal, Daylighting {dimensionless}
 Site:GroundReflectance:SnowModifier,   1.000,   1.000
! <Site:GroundReflectance:Snow>,Jan{dimensionless},Feb{dimensionless},Mar{dimensionless},Apr{dimensionless},May{dimensionless},Jun{dimensionless},Jul{dimensionless},Aug{dimensionless},Sep{dimensionless},Oct{dimensionless},Nov{dimensionless},Dec{dimensionless}
 Site:GroundReflectance:Snow,  0.20,  0.20,  0.20,  0.20,  0.20,  0.20,  0.20,  0.20,  0.20,  0.20,  0.20,  0.20
! <Site:GroundReflectance:Snow:Daylighting>,Jan{dimensionless},Feb{dimensionless},Mar{dimensionless},Apr{dimensionless},May{dimensionless},Jun{dimensionless},Jul{dimensionless},Aug{dimensionless},Sep{dimensionless},Oct{dimensionless},Nov{dimensionless},Dec{dimensionless}
 Site:GroundReflectance:Snow:Daylighting,  0.20,  0.20,  0.20,  0.20,  0.20,  0.20,  0.20,  0.20,  0.20,  0.20,  0.20,  0.20
! <Environment:Weather Station>,Wind Sensor Height Above Ground {m},Wind Speed Profile Exponent {},Wind Speed Profile Boundary Layer Thickness {m},Air Temperature Sensor Height Above Ground {m},Wind Speed Modifier Coefficient-Internal,Temperature Modifier Coefficient-Internal
Environment:Weather Station,10.000,0.140,270.000,1.500,1.586,9.750E-003
! <Site:Location>, Location Name, Latitude {N+/S- Deg}, Longitude {E+/W- Deg},  Time Zone Number {GMT+/-}, Elevation {m},  Standard Pressure at Elevation {Pa}, Standard RhoAir at Elevation
Site:Location,Ottawa=Macdonald-Cartier Intl AP ON CAN CWEC2016 WMO#=716280,45.32,-75.67,-5.00,114.90,99952,1.1880
! <Site Water Mains Temperature Information>,Calculation Method{},Water Mains Temperature Schedule Name{},Annual Average Outdoor Air Temperature{C},Maximum Difference In Monthly Average Outdoor Air Temperatures{deltaC},Fixed Default Water Mains Temperature{C}
Site Water Mains Temperature Information,Correlation,NA,6.83,31.20,NA
! <Building Information>, Building Name,North Axis {deg},Terrain,  Loads Convergence Tolerance Value,Temperature Convergence Tolerance Value,  Solar Distribution,Maximum Number of Warmup Days,Minimum Number of Warmup Days
 Building Information,Rectangular_SmallOffice_NECB2017,0.000,Suburbs,4.00000E-002,0.40000,FullExterior,25,6
! <Inside Convection Algorithm>, Algorithm {Simple | TARP | CeilingDiffuser | AdaptiveConvectionAlgorithm}
Inside Convection Algorithm,TARP
! <Outside Convection Algorithm>, Algorithm {SimpleCombined | TARP | MoWitt | DOE-2 | AdaptiveConvectionAlgorithm}
Outside Convection Algorithm,TARP
! <Sky Radiance Distribution>, Value {Anisotropic}
Sky Radiance Distribution,Anisotropic
! <Zone Air Solution Algorithm>, Value {ThirdOrderBackwardDifference | AnalyticalSolution | EulerMethod}
 Zone Air Solution Algorithm, ThirdOrderBackwardDifference
! <Zone Air Carbon Dioxide Balance Simulation>, Simulation {Yes/No}, Carbon Dioxide Concentration
 Zone Air Carbon Dioxide Balance Simulation, No,N/A
! <Zone Air Generic Contaminant Balance Simulation>, Simulation {Yes/No}, Generic Contaminant Concentration
 Zone Air Generic Contaminant Balance Simulation, No,N/A
! <Zone Air Mass Flow Balance Simulation>, Enforce Mass Balance, Adjust Zone Mixing, Adjust Zone Infiltration {AddInfiltration | AdjustInfiltration | None}, Infiltration Zones {MixingSourceZonesOnly | AllZones}
 Zone Air Mass Flow Balance Simulation, No,N/A,N/A,N/A
! <HVACSystemRootFindingAlgorithm>, Value {RegulaFalsi | Bisection | BisectionThenRegulaFalsi | RegulaFalsiThenBisection}
 HVACSystemRootFindingAlgorithm, RegulaFalsi
! <Environment:Site Atmospheric Variation>,Wind Speed Profile Exponent {},Wind Speed Profile Boundary Layer Thickness {m},Air Temperature Gradient Coefficient {K/m}
Environment:Site Atmospheric Variation,0.220,370.000,6.500000E-003
! <Surface Geometry>,Starting Corner,Vertex Input Direction,Coordinate System,Daylight Reference Point Coordinate System,Rectangular (Simple) Surface Coordinate System
 Surface Geometry,UpperLeftCorner,Counterclockwise,RelativeCoordinateSystem,RelativeCoordinateSystem,RelativeToZoneOrigin
! <Surface Heat Transfer Algorithm>, Value {CTF - ConductionTransferFunction | EMPD - MoisturePenetrationDepthConductionTransferFunction | CondFD - ConductionFiniteDifference | HAMT - CombinedHeatAndMoistureFiniteElement} - Description,Inside Surface Max Temperature Limit{C}, Surface Convection Coefficient Lower Limit {W/m2-K}, Surface Convection Coefficient Upper Limit {W/m2-K}
Surface Heat Transfer Algorithm, CTF - ConductionTransferFunction,200,0.10,1000.0
! <Shading Summary>, Number of Fixed Detached Shades, Number of Building Detached Shades, Number of Attached Shades
 Shading Summary,0,0,0
! <Zone Summary>, Number of Zones, Number of Zone Surfaces, Number of SubSurfaces
 Zone Summary,10,73,13
! <Zone Information>,Zone Name,North Axis {deg},Origin X-Coordinate {m},Origin Y-Coordinate {m},Origin Z-Coordinate {m},Centroid X-Coordinate {m},Centroid Y-Coordinate {m},Centroid Z-Coordinate {m},Type,Zone Multiplier,Zone List Multiplier,Minimum X {m},Maximum X {m},Minimum Y {m},Maximum Y {m},Minimum Z {m},Maximum Z {m},Ceiling Height {m},Volume {m3},Zone Inside Convection Algorithm {Simple-Detailed-CeilingDiffuser-TrombeWall},Zone Outside Convection Algorithm {Simple-Detailed-Tarp-MoWitt-DOE-2-BLAST}, Floor Area {m2},Exterior Gross Wall Area {m2},Exterior Net Wall Area {m2},Exterior Window Area {m2}, Number of Surfaces, Number of SubSurfaces, Number of Shading SubSurfaces,  Part of Total Building Area
 Zone Information, STORY 1 CORE SPACE ZN,0.0,4.57,4.57,0.00,50.00,50.00,1.60,1,1,1,4.57,95.43,4.57,95.43,0.00,3.20,3.20,26417.73,TARP,TARP,8255.54,0.00,0.00,0.00,6,0,0,Yes
 Zone Information, STORY 1 EAST PERIMETER SPACE ZN,0.0,95.43,4.57,0.00,97.78,50.00,1.60,1,1,1,95.43,100.00,0.00,100.00,0.00,3.20,3.20,1395.57,TARP,TARP,436.12,320.00,202.56,117.44,6,1,0,Yes
 Zone Information, STORY 1 NORTH PERIMETER SPACE ZN,0.0,4.57,95.43,0.00,50.00,97.78,1.60,1,1,1,0.00,100.00,95.43,100.00,0.00,3.20,3.20,1395.57,TARP,TARP,436.12,320.00,202.56,117.44,6,1,0,Yes
 Zone Information, STORY 1 SOUTH PERIMETER SPACE ZN,0.0,0.00,0.00,0.00,50.00,2.22,1.60,1,1,1,0.00,100.00,0.00,4.57,0.00,3.20,3.20,1395.57,TARP,TARP,436.12,320.00,202.56,117.44,6,1,0,Yes
 Zone Information, STORY 1 WEST PERIMETER SPACE ZN,0.0,0.00,0.00,0.00,2.22,50.00,1.60,1,1,1,0.00,4.57,0.00,100.00,0.00,3.20,3.20,1395.57,TARP,TARP,436.12,320.00,202.56,117.44,6,1,0,Yes
 Zone Information, STORY 2 CORE SPACE ZN,0.0,4.57,4.57,3.20,50.00,50.00,4.80,1,1,1,4.57,95.43,4.57,95.43,3.20,6.40,3.20,26417.73,TARP,TARP,8255.54,0.00,0.00,165.11,6,1,0,Yes
 Zone Information, STORY 2 EAST PERIMETER SPACE ZN,0.0,95.43,4.57,3.20,97.78,50.00,4.80,1,1,1,95.43,100.00,0.00,100.00,3.20,6.40,3.20,1395.57,TARP,TARP,436.12,320.00,202.56,126.16,6,2,0,Yes
 Zone Information, STORY 2 NORTH PERIMETER SPACE ZN,0.0,4.57,95.43,3.20,50.00,97.78,4.80,1,1,1,0.00,100.00,95.43,100.00,3.20,6.40,3.20,1395.57,TARP,TARP,436.12,320.00,202.56,126.16,6,2,0,Yes
 Zone Information, STORY 2 SOUTH PERIMETER SPACE ZN,0.0,0.00,0.00,3.20,50.00,2.22,4.80,1,1,1,0.00,100.00,0.00,4.57,3.20,6.40,3.20,1395.57,TARP,TARP,436.12,320.00,202.56,126.16,6,2,0,Yes
 Zone Information, STORY 2 WEST PERIMETER SPACE ZN,0.0,0.00,0.00,3.20,2.22,50.00,4.80,1,1,1,0.00,4.57,0.00,100.00,3.20,6.40,3.20,1395.57,TARP,TARP,436.12,320.00,202.56,126.16,6,2,0,Yes
! <Zone Internal Gains Nominal>,Zone Name, Floor Area {m2},# Occupants,Area per Occupant {m2/person},Occupant per Area {person/m2},Interior Lighting {W/m2},Electric Load {W/m2},Gas Load {W/m2},Other Load {W/m2},Hot Water Eq {W/m2},Steam Equipment {W/m2},Sum Loads per Area {W/m2},Outdoor Controlled Baseboard Heat
 Zone Internal Gains Nominal, STORY 1 CORE SPACE ZN,8255.54,330.3,24.991,4.001E-002,8.500,7.503,0.000,0.000,0.000,0.000,16.003,No
 Zone Internal Gains Nominal, STORY 1 EAST PERIMETER SPACE ZN,436.12,17.5,24.991,4.001E-002,8.500,7.503,0.000,0.000,0.000,0.000,16.003,No
 Zone Internal Gains Nominal, STORY 1 NORTH PERIMETER SPACE ZN,436.12,17.5,24.991,4.001E-002,8.500,7.503,0.000,0.000,0.000,0.000,16.003,No
 Zone Internal Gains Nominal, STORY 1 SOUTH PERIMETER SPACE ZN,436.12,17.5,24.991,4.001E-002,8.500,7.503,0.000,0.000,0.000,0.000,16.003,No
 Zone Internal Gains Nominal, STORY 1 WEST PERIMETER SPACE ZN,436.12,17.5,24.991,4.001E-002,8.500,7.503,0.000,0.000,0.000,0.000,16.003,No
 Zone Internal Gains Nominal, STORY 2 CORE SPACE ZN,8255.54,330.3,24.991,4.001E-002,8.500,7.503,0.000,0.000,0.000,0.000,16.003,No
 Zone Internal Gains Nominal, STORY 2 EAST PERIMETER SPACE ZN,436.12,17.5,24.991,4.001E-002,8.500,7.503,0.000,0.000,0.000,0.000,16.003,No
 Zone Internal Gains Nominal, STORY 2 NORTH PERIMETER SPACE ZN,436.12,17.5,24.991,4.001E-002,8.500,7.503,0.000,0.000,0.000,0.000,16.003,No
 Zone Internal Gains Nominal, STORY 2 SOUTH PERIMETER SPACE ZN,436.12,17.5,24.991,4.001E-002,8.500,7.503,0.000,0.000,0.000,0.000,16.003,No
 Zone Internal Gains Nominal, STORY 2 WEST PERIMETER SPACE ZN,436.12,17.5,24.991,4.001E-002,8.500,7.503,0.000,0.000,0.000,0.000,16.003,No
! <People Internal Gains Nominal>,Name,Schedule Name,Zone Name,Zone Floor Area {m2},# Zone Occupants,Number of People {},People/Floor Area {person/m2},Floor Area per person {m2/person},Fraction Radiant,Fraction Convected,Sensible Fraction Calculation,Activity level,ASHRAE 55 Warnings,Carbon Dioxide Generation Rate,Nominal Minimum Number of People,Nominal Maximum Number of People
 People Internal Gains Nominal, STORY 1 CORE SPACE ZN OFFICE WHOLEBUILDING PEOPLE,NECB-A-OCCUPANCY,STORY 1 CORE SPACE ZN,8255.54,330.3,330.3,4.001E-002,24.991,0.300,0.700,AutoCalculate,NECB-ACTIVITY,No,3.8200E-008,0,297
 People Internal Gains Nominal, STORY 1 EAST PERIMETER SPACE ZN OFFICE WHOLEBUILDING PEOPLE,NECB-A-OCCUPANCY,STORY 1 EAST PERIMETER SPACE ZN,436.12,17.5,17.5,4.001E-002,24.991,0.300,0.700,AutoCalculate,NECB-ACTIVITY,No,3.8200E-008,0,16
 People Internal Gains Nominal, STORY 1 NORTH PERIMETER SPACE ZN OFFICE WHOLEBUILDING PEOPLE,NECB-A-OCCUPANCY,STORY 1 NORTH PERIMETER SPACE ZN,436.12,17.5,17.5,4.001E-002,24.991,0.300,0.700,AutoCalculate,NECB-ACTIVITY,No,3.8200E-008,0,16
 People Internal Gains Nominal, STORY 1 SOUTH PERIMETER SPACE ZN OFFICE WHOLEBUILDING PEOPLE,NECB-A-OCCUPANCY,STORY 1 SOUTH PERIMETER SPACE ZN,436.12,17.5,17.5,4.001E-002,24.991,0.300,0.700,AutoCalculate,NECB-ACTIVITY,No,3.8200E-008,0,16
 People Internal Gains Nominal, STORY 1 WEST PERIMETER SPACE ZN OFFICE WHOLEBUILDING PEOPLE,NECB-A-OCCUPANCY,STORY 1 WEST PERIMETER SPACE ZN,436.12,17.5,17.5,4.001E-002,24.991,0.300,0.700,AutoCalculate,NECB-ACTIVITY,No,3.8200E-008,0,16
 People Internal Gains Nominal, STORY 2 CORE SPACE ZN OFFICE WHOLEBUILDING PEOPLE,NECB-A-OCCUPANCY,STORY 2 CORE SPACE ZN,8255.54,330.3,330.3,4.001E-002,24.991,0.300,0.700,AutoCalculate,NECB-ACTIVITY,No,3.8200E-008,0,297
 People Internal Gains Nominal, STORY 2 EAST PERIMETER SPACE ZN OFFICE WHOLEBUILDING PEOPLE,NECB-A-OCCUPANCY,STORY 2 EAST PERIMETER SPACE ZN,436.12,17.5,17.5,4.001E-002,24.991,0.300,0.700,AutoCalculate,NECB-ACTIVITY,No,3.8200E-008,0,16
 People Internal Gains Nominal, STORY 2 NORTH PERIMETER SPACE ZN OFFICE WHOLEBUILDING PEOPLE,NECB-A-OCCUPANCY,STORY 2 NORTH PERIMETER SPACE ZN,436.12,17.5,17.5,4.001E-002,24.991,0.300,0.700,AutoCalculate,NECB-ACTIVITY,No,3.8200E-008,0,16
 People Internal Gains Nominal, STORY 2 SOUTH PERIMETER SPACE ZN OFFICE WHOLEBUILDING PEOPLE,NECB-A-OCCUPANCY,STORY 2 SOUTH PERIMETER SPACE ZN,436.12,17.5,17.5,4.001E-002,24.991,0.300,0.700,AutoCalculate,NECB-ACTIVITY,No,3.8200E-008,0,16
 People Internal Gains Nominal, STORY 2 WEST PERIMETER SPACE ZN OFFICE WHOLEBUILDING PEOPLE,NECB-A-OCCUPANCY,STORY 2 WEST PERIMETER SPACE ZN,436.12,17.5,17.5,4.001E-002,24.991,0.300,0.700,AutoCalculate,NECB-ACTIVITY,No,3.8200E-008,0,16
! <Lights Internal Gains Nominal>,Name,Schedule Name,Zone Name,Zone Floor Area {m2},# Zone Occupants,Lighting Level {W},Lights/Floor Area {W/m2},Lights per person {W/person},Fraction Return Air,Fraction Radiant,Fraction Short Wave,Fraction Convected,Fraction Replaceable,End-Use Category,Nominal Minimum Lighting Level {W},Nominal Maximum Lighting Level {W}
 Lights Internal Gains Nominal, STORY 1 CORE SPACE ZN OFFICE WHOLEBUILDING LIGHTS,NECB-A-LIGHTING,STORY 1 CORE SPACE ZN,8255.54,330.3,70171.479,8.500,212.421,0.000,0.500,0.200,0.300,1.000,General,3508.574,63154.331
 Lights Internal Gains Nominal, STORY 1 EAST PERIMETER SPACE ZN OFFICE WHOLEBUILDING LIGHTS,NECB-A-LIGHTING,STORY 1 EAST PERIMETER SPACE ZN,436.12,17.5,3706.946,8.500,212.421,0.000,0.500,0.200,0.300,1.000,General,185.347,3336.252
 Lights Internal Gains Nominal, STORY 1 NORTH PERIMETER SPACE ZN OFFICE WHOLEBUILDING LIGHTS,NECB-A-LIGHTING,STORY 1 NORTH PERIMETER SPACE ZN,436.12,17.5,3706.946,8.500,212.421,0.000,0.500,0.200,0.300,1.000,General,185.347,3336.252
 Lights Internal Gains Nominal, STORY 1 SOUTH PERIMETER SPACE ZN OFFICE WHOLEBUILDING LIGHTS,NECB-A-LIGHTING,STORY 1 SOUTH PERIMETER SPACE ZN,436.12,17.5,3706.946,8.500,212.421,0.000,0.500,0.200,0.300,1.000,General,185.347,3336.252
 Lights Internal Gains Nominal, STORY 1 WEST PERIMETER SPACE ZN OFFICE WHOLEBUILDING LIGHTS,NECB-A-LIGHTING,STORY 1 WEST PERIMETER SPACE ZN,436.12,17.5,3706.946,8.500,212.421,0.000,0.500,0.200,0.300,1.000,General,185.347,3336.252
 Lights Internal Gains Nominal, STORY 2 CORE SPACE ZN OFFICE WHOLEBUILDING LIGHTS,NECB-A-LIGHTING,STORY 2 CORE SPACE ZN,8255.54,330.3,70171.479,8.500,212.421,0.000,0.500,0.200,0.300,1.000,General,3508.574,63154.331
 Lights Internal Gains Nominal, STORY 2 EAST PERIMETER SPACE ZN OFFICE WHOLEBUILDING LIGHTS,NECB-A-LIGHTING,STORY 2 EAST PERIMETER SPACE ZN,436.12,17.5,3706.946,8.500,212.421,0.000,0.500,0.200,0.300,1.000,General,185.347,3336.252
 Lights Internal Gains Nominal, STORY 2 NORTH PERIMETER SPACE ZN OFFICE WHOLEBUILDING LIGHTS,NECB-A-LIGHTING,STORY 2 NORTH PERIMETER SPACE ZN,436.12,17.5,3706.946,8.500,212.421,0.000,0.500,0.200,0.300,1.000,General,185.347,3336.252
 Lights Internal Gains Nominal, STORY 2 SOUTH PERIMETER SPACE ZN OFFICE WHOLEBUILDING LIGHTS,NECB-A-LIGHTING,STORY 2 SOUTH PERIMETER SPACE ZN,436.12,17.5,3706.946,8.500,212.421,0.000,0.500,0.200,0.300,1.000,General,185.347,3336.252
 Lights Internal Gains Nominal, STORY 2 WEST PERIMETER SPACE ZN OFFICE WHOLEBUILDING LIGHTS,NECB-A-LIGHTING,STORY 2 WEST PERIMETER SPACE ZN,436.12,17.5,3706.946,8.500,212.421,0.000,0.500,0.200,0.300,1.000,General,185.347,3336.252
! <ElectricEquipment Internal Gains Nominal>,Name,Schedule Name,Zone Name,Zone Floor Area {m2},# Zone Occupants,Equipment Level {W},Equipment/Floor Area {W/m2},Equipment per person {W/person},Fraction Latent,Fraction Radiant,Fraction Lost,Fraction Convected,End-Use SubCategory,Nominal Minimum Equipment Level {W},Nominal Maximum Equipment Level {W}
 ElectricEquipment Internal Gains Nominal, STORY 1 CORE SPACE ZN OFFICE WHOLEBUILDING ELEC EQUIP,NECB-A-ELECTRIC-EQUIPMENT,STORY 1 CORE SPACE ZN,8255.54,330.3,61939.049,7.503,187.500,0.000,0.500,0.000,0.500,General,12387.810,55745.144
 ElectricEquipment Internal Gains Nominal, STORY 1 EAST PERIMETER SPACE ZN OFFICE WHOLEBUILDING ELEC EQUIP,NECB-A-ELECTRIC-EQUIPMENT,STORY 1 EAST PERIMETER SPACE ZN,436.12,17.5,3272.052,7.503,187.500,0.000,0.500,0.000,0.500,General,654.410,2944.847
 ElectricEquipment Internal Gains Nominal, STORY 1 NORTH PERIMETER SPACE ZN OFFICE WHOLEBUILDING ELEC EQUIP,NECB-A-ELECTRIC-EQUIPMENT,STORY 1 NORTH PERIMETER SPACE ZN,436.12,17.5,3272.052,7.503,187.500,0.000,0.500,0.000,0.500,General,654.410,2944.847
 ElectricEquipment Internal Gains Nominal, STORY 1 SOUTH PERIMETER SPACE ZN OFFICE WHOLEBUILDING ELEC EQUIP,NECB-A-ELECTRIC-EQUIPMENT,STORY 1 SOUTH PERIMETER SPACE ZN,436.12,17.5,3272.052,7.503,187.500,0.000,0.500,0.000,0.500,General,654.410,2944.847
 ElectricEquipment Internal Gains Nominal, STORY 1 WEST PERIMETER SPACE ZN OFFICE WHOLEBUILDING ELEC EQUIP,NECB-A-ELECTRIC-EQUIPMENT,STORY 1 WEST PERIMETER SPACE ZN,436.12,17.5,3272.052,7.503,187.500,0.000,0.500,0.000,0.500,General,654.410,2944.847
 ElectricEquipment Internal Gains Nominal, STORY 2 CORE SPACE ZN OFFICE WHOLEBUILDING ELEC EQUIP,NECB-A-ELECTRIC-EQUIPMENT,STORY 2 CORE SPACE ZN,8255.54,330.3,61939.049,7.503,187.500,0.000,0.500,0.000,0.500,General,12387.810,55745.144
 ElectricEquipment Internal Gains Nominal, STORY 2 EAST PERIMETER SPACE ZN OFFICE WHOLEBUILDING ELEC EQUIP,NECB-A-ELECTRIC-EQUIPMENT,STORY 2 EAST PERIMETER SPACE ZN,436.12,17.5,3272.052,7.503,187.500,0.000,0.500,0.000,0.500,General,654.410,2944.847
 ElectricEquipment Internal Gains Nominal, STORY 2 NORTH PERIMETER SPACE ZN OFFICE WHOLEBUILDING ELEC EQUIP,NECB-A-ELECTRIC-EQUIPMENT,STORY 2 NORTH PERIMETER SPACE ZN,436.12,17.5,3272.052,7.503,187.500,0.000,0.500,0.000,0.500,General,654.410,2944.847
 ElectricEquipment Internal Gains Nominal, STORY 2 SOUTH PERIMETER SPACE ZN OFFICE WHOLEBUILDING ELEC EQUIP,NECB-A-ELECTRIC-EQUIPMENT,STORY 2 SOUTH PERIMETER SPACE ZN,436.12,17.5,3272.052,7.503,187.500,0.000,0.500,0.000,0.500,General,654.410,2944.847
 ElectricEquipment Internal Gains Nominal, STORY 2 WEST PERIMETER SPACE ZN OFFICE WHOLEBUILDING ELEC EQUIP,NECB-A-ELECTRIC-EQUIPMENT,STORY 2 WEST PERIMETER SPACE ZN,436.12,17.5,3272.052,7.503,187.500,0.000,0.500,0.000,0.500,General,654.410,2944.847
! <Shadowing/Sun Position Calculations Annual Simulations>, Calculation Method, Value {days}, Allowable Number Figures in Shadow Overlap {}, Polygon Clipping Algorithm, Sky Diffuse Modeling Algorithm, External Shading Calculation Method, Output External Shading Calculation Results, Disable Self-Shading Within Shading Zone Groups, Disable Self-Shading From Shading Zone Groups to Other Zones
Shadowing/Sun Position Calculations Annual Simulations,AverageOverDaysInFrequency,20,15000,SutherlandHodgman,SimpleSkyDiffuseModeling,InternalCalculation,No,No,No
! <ZoneInfiltration Airflow Stats Nominal>,Name,Schedule Name,Zone Name, Zone Floor Area {m2}, # Zone Occupants,Design Volume Flow Rate {m3/s},Volume Flow Rate/Floor Area {m3/s-m2},Volume Flow Rate/Exterior Surface Area {m3/s-m2},ACH - Air Changes per Hour,Equation A - Constant Term Coefficient {},Equation B - Temperature Term Coefficient {1/C},Equation C - Velocity Term Coefficient {s/m}, Equation D - Velocity Squared Term Coefficient {s2/m2}
 ZoneInfiltration Airflow Stats Nominal, STORY 1 EAST PERIMETER SPACE INFILTRATION,ALWAYS ON DISCRETE,STORY 1 EAST PERIMETER SPACE ZN,436.12,17.5,8.000E-002,1.834E-004,2.500E-004,0.206,0.000,0.000,0.224,0.000
 ZoneInfiltration Airflow Stats Nominal, STORY 1 NORTH PERIMETER SPACE INFILTRATION,ALWAYS ON DISCRETE,STORY 1 NORTH PERIMETER SPACE ZN,436.12,17.5,8.000E-002,1.834E-004,2.500E-004,0.206,0.000,0.000,0.224,0.000
 ZoneInfiltration Airflow Stats Nominal, STORY 1 SOUTH PERIMETER SPACE INFILTRATION,ALWAYS ON DISCRETE,STORY 1 SOUTH PERIMETER SPACE ZN,436.12,17.5,8.000E-002,1.834E-004,2.500E-004,0.206,0.000,0.000,0.224,0.000
 ZoneInfiltration Airflow Stats Nominal, STORY 1 WEST PERIMETER SPACE INFILTRATION,ALWAYS ON DISCRETE,STORY 1 WEST PERIMETER SPACE ZN,436.12,17.5,8.000E-002,1.834E-004,2.500E-004,0.206,0.000,0.000,0.224,0.000
 ZoneInfiltration Airflow Stats Nominal, STORY 2 CORE SPACE INFILTRATION,ALWAYS ON DISCRETE,STORY 2 CORE SPACE ZN,8255.54,330.3,2.064,2.500E-004,2.500E-004,0.281,0.000,0.000,0.224,0.000
 ZoneInfiltration Airflow Stats Nominal, STORY 2 EAST PERIMETER SPACE INFILTRATION,ALWAYS ON DISCRETE,STORY 2 EAST PERIMETER SPACE ZN,436.12,17.5,0.189,4.334E-004,2.500E-004,0.488,0.000,0.000,0.224,0.000
 ZoneInfiltration Airflow Stats Nominal, STORY 2 NORTH PERIMETER SPACE INFILTRATION,ALWAYS ON DISCRETE,STORY 2 NORTH PERIMETER SPACE ZN,436.12,17.5,0.189,4.334E-004,2.500E-004,0.488,0.000,0.000,0.224,0.000
 ZoneInfiltration Airflow Stats Nominal, STORY 2 SOUTH PERIMETER SPACE INFILTRATION,ALWAYS ON DISCRETE,STORY 2 SOUTH PERIMETER SPACE ZN,436.12,17.5,0.189,4.334E-004,2.500E-004,0.488,0.000,0.000,0.224,0.000
 ZoneInfiltration Airflow Stats Nominal, STORY 2 WEST PERIMETER SPACE INFILTRATION,ALWAYS ON DISCRETE,STORY 2 WEST PERIMETER SPACE ZN,436.12,17.5,0.189,4.334E-004,2.500E-004,0.488,0.000,0.000,0.224,0.000
! <AirFlow Model>, Simple
 AirFlow Model, Simple
! <RoomAir Model>, Zone Name, Mixing/Mundt/UCSDDV/UCSDCV/UCSDUFI/UCSDUFE/User Defined
RoomAir Model,STORY 1 CORE SPACE ZN,Mixing/Well-Stirred
RoomAir Model,STORY 1 EAST PERIMETER SPACE ZN,Mixing/Well-Stirred
RoomAir Model,STORY 1 NORTH PERIMETER SPACE ZN,Mixing/Well-Stirred
RoomAir Model,STORY 1 SOUTH PERIMETER SPACE ZN,Mixing/Well-Stirred
RoomAir Model,STORY 1 WEST PERIMETER SPACE ZN,Mixing/Well-Stirred
RoomAir Model,STORY 2 CORE SPACE ZN,Mixing/Well-Stirred
RoomAir Model,STORY 2 EAST PERIMETER SPACE ZN,Mixing/Well-Stirred
RoomAir Model,STORY 2 NORTH PERIMETER SPACE ZN,Mixing/Well-Stirred
RoomAir Model,STORY 2 SOUTH PERIMETER SPACE ZN,Mixing/Well-Stirred
RoomAir Model,STORY 2 WEST PERIMETER SPACE ZN,Mixing/Well-Stirred
! <AirflowNetwork Model:Control>, No Multizone or Distribution/Multizone with Distribution/Multizone without Distribution/Multizone with Distribution only during Fan Operation
AirflowNetwork Model:Control,NoMultizoneOrDistribution
! <Zone Volume Capacitance Multiplier>, Sensible Heat Capacity Multiplier, Moisture Capacity Multiplier, Carbon Dioxide Capacity Multiplier, Generic Contaminant Capacity Multiplier
Zone Volume Capacitance Multiplier,   1.000 ,   1.000,   1.000,   1.000
! <Load Timesteps in Zone Design Calculation Averaging Window>, Value
 Load Timesteps in Zone Design Calculation Averaging Window,    6
! <Heating Sizing Factor Information>, Sizing Factor ID, Value
 Heating Sizing Factor Information, Global,   1.2500    
 Heating Sizing Factor Information, Zone STORY 1 CORE SPACE ZN,   1.2500    
 Heating Sizing Factor Information, Zone STORY 1 EAST PERIMETER SPACE ZN,   1.2500    
 Heating Sizing Factor Information, Zone STORY 1 NORTH PERIMETER SPACE ZN,   1.2500    
 Heating Sizing Factor Information, Zone STORY 1 SOUTH PERIMETER SPACE ZN,   1.2500    
 Heating Sizing Factor Information, Zone STORY 1 WEST PERIMETER SPACE ZN,   1.2500    
 Heating Sizing Factor Information, Zone STORY 2 CORE SPACE ZN,   1.2500    
 Heating Sizing Factor Information, Zone STORY 2 EAST PERIMETER SPACE ZN,   1.2500    
 Heating Sizing Factor Information, Zone STORY 2 NORTH PERIMETER SPACE ZN,   1.2500    
 Heating Sizing Factor Information, Zone STORY 2 SOUTH PERIMETER SPACE ZN,   1.2500    
 Heating Sizing Factor Information, Zone STORY 2 WEST PERIMETER SPACE ZN,   1.2500    
! <Cooling Sizing Factor Information>, Sizing Factor ID, Value
 Cooling Sizing Factor Information, Global,   1.1500    
 Cooling Sizing Factor Information, Zone STORY 1 CORE SPACE ZN,   1.1500    
 Cooling Sizing Factor Information, Zone STORY 1 EAST PERIMETER SPACE ZN,   1.1500    
 Cooling Sizing Factor Information, Zone STORY 1 NORTH PERIMETER SPACE ZN,   1.1500    
 Cooling Sizing Factor Information, Zone STORY 1 SOUTH PERIMETER SPACE ZN,   1.1500    
 Cooling Sizing Factor Information, Zone STORY 1 WEST PERIMETER SPACE ZN,   1.1500    
 Cooling Sizing Factor Information, Zone STORY 2 CORE SPACE ZN,   1.1500    
 Cooling Sizing Factor Information, Zone STORY 2 EAST PERIMETER SPACE ZN,   1.1500    
 Cooling Sizing Factor Information, Zone STORY 2 NORTH PERIMETER SPACE ZN,   1.1500    
 Cooling Sizing Factor Information, Zone STORY 2 SOUTH PERIMETER SPACE ZN,   1.1500    
 Cooling Sizing Factor Information, Zone STORY 2 WEST PERIMETER SPACE ZN,   1.1500    
! <Zone Sizing Information>, Zone Name, Load Type, Calc Des Load {W}, User Des Load {W}, Calc Des Air Flow Rate {m3/s}, User Des Air Flow Rate {m3/s}, Design Day Name, Date/Time of Peak, Temperature at Peak {C}, Humidity Ratio at Peak {kgWater/kgDryAir}, Floor Area {m2}, # Occupants, Calc Outdoor Air Flow Rate {m3/s}, Calc DOAS Heat Addition Rate {W}
 Zone Sizing Information, STORY 1 CORE SPACE ZN, Cooling, 112073.94458, 128885.03627, 9.24408, 10.63069, OTTAWA=MACDONALD-CARTIER INTL ANN CLG .4% CONDNS DB=>MWB, 7/21 17:00:00, 29.18600, 1.30168E-002, 8255.53960, 330.34159, 3.31311, 0.00000
 Zone Sizing Information, STORY 1 CORE SPACE ZN, Heating, 30354.20570, 37942.75712, 1.35512, 3.31311, OTTAWA=MACDONALD-CARTIER INTL ANN HTG 99.6% CONDNS DB, 1/21 08:00:00, -24.20000, 4.26780E-004, 8255.53960, 330.34159, 3.31311, 0.00000
 Zone Sizing Information, STORY 1 EAST PERIMETER SPACE ZN, Cooling, 32261.18924, 37100.36762, 2.66091, 3.06005, OTTAWA=MACDONALD-CARTIER INTL ANN CLG .4% CONDNS DB=>MWB, 7/21 09:10:00, 25.33117, 1.30168E-002, 436.11510, 17.45094, 0.17502, 0.00000
 Zone Sizing Information, STORY 1 EAST PERIMETER SPACE ZN, Heating, 16926.08373, 21157.60466, 0.76661, 0.95826, OTTAWA=MACDONALD-CARTIER INTL ANN HTG 99.6% CONDNS DB, 1/21 08:00:00, -24.20000, 4.26780E-004, 436.11510, 17.45094, 0.17502, 0.00000
 Zone Sizing Information, STORY 1 NORTH PERIMETER SPACE ZN, Cooling, 10886.78579, 12519.80366, 0.89798, 1.03268, OTTAWA=MACDONALD-CARTIER INTL ANN CLG .4% CONDNS DB=>MWB, 7/21 15:40:00, 30.19600, 1.30168E-002, 436.11510, 17.45094, 0.17502, 0.00000
 Zone Sizing Information, STORY 1 NORTH PERIMETER SPACE ZN, Heating, 17122.17531, 21402.71914, 0.77558, 0.96948, OTTAWA=MACDONALD-CARTIER INTL ANN HTG 99.6% CONDNS DB, 1/21 08:00:00, -24.20000, 4.26780E-004, 436.11510, 17.45094, 0.17502, 0.00000
 Zone Sizing Information, STORY 1 SOUTH PERIMETER SPACE ZN, Cooling, 18047.66750, 20754.81763, 1.48861, 1.71190, OTTAWA=MACDONALD-CARTIER INTL ANN CLG .4% CONDNS DB=>MWB, 7/21 13:10:00, 30.17917, 1.30168E-002, 436.11510, 17.45094, 0.17502, 0.00000
 Zone Sizing Information, STORY 1 SOUTH PERIMETER SPACE ZN, Heating, 16926.08373, 21157.60466, 0.76661, 0.95826, OTTAWA=MACDONALD-CARTIER INTL ANN HTG 99.6% CONDNS DB, 1/21 08:00:00, -24.20000, 4.26780E-004, 436.11510, 17.45094, 0.17502, 0.00000
 Zone Sizing Information, STORY 1 WEST PERIMETER SPACE ZN, Cooling, 36566.00598, 42050.90688, 3.01608, 3.46849, OTTAWA=MACDONALD-CARTIER INTL ANN CLG .4% CONDNS DB=>MWB, 7/21 17:20:00, 28.84933, 1.30168E-002, 436.11510, 17.45094, 0.17502, 0.00000
 Zone Sizing Information, STORY 1 WEST PERIMETER SPACE ZN, Heating, 17122.17531, 21402.71914, 0.77558, 0.96948, OTTAWA=MACDONALD-CARTIER INTL ANN HTG 99.6% CONDNS DB, 1/21 08:00:00, -24.20000, 4.26780E-004, 436.11510, 17.45094, 0.17502, 0.00000
 Zone Sizing Information, STORY 2 CORE SPACE ZN, Cooling, 213352.14141, 245354.96262, 17.59855, 20.23833, OTTAWA=MACDONALD-CARTIER INTL ANN CLG .4% CONDNS DB=>MWB, 7/21 15:00:00, 30.60000, 1.30168E-002, 8255.53960, 330.34159, 3.31311, 0.00000
 Zone Sizing Information, STORY 2 CORE SPACE ZN, Heating, 137629.84799, 172037.30998, 6.15763, 7.69704, OTTAWA=MACDONALD-CARTIER INTL ANN HTG 99.6% CONDNS DB, 1/21 08:00:00, -24.20000, 4.26780E-004, 8255.53960, 330.34159, 3.31311, 0.00000
 Zone Sizing Information, STORY 2 EAST PERIMETER SPACE ZN, Cooling, 40188.69097, 46216.99462, 3.31505, 3.81230, OTTAWA=MACDONALD-CARTIER INTL ANN CLG .4% CONDNS DB=>MWB, 7/21 09:10:00, 25.33117, 1.30168E-002, 436.11510, 17.45094, 0.17502, 0.00000
 Zone Sizing Information, STORY 2 EAST PERIMETER SPACE ZN, Heating, 22288.92675, 27861.15844, 1.01147, 1.26433, OTTAWA=MACDONALD-CARTIER INTL ANN HTG 99.6% CONDNS DB, 1/21 08:00:00, -24.20000, 4.26780E-004, 436.11510, 17.45094, 0.17502, 0.00000
 Zone Sizing Information, STORY 2 NORTH PERIMETER SPACE ZN, Cooling, 18578.18238, 21364.90973, 1.53247, 1.76234, OTTAWA=MACDONALD-CARTIER INTL ANN CLG .4% CONDNS DB=>MWB, 7/21 14:30:00, 30.60000, 1.30168E-002, 436.11510, 17.45094, 0.17502, 0.00000
 Zone Sizing Information, STORY 2 NORTH PERIMETER SPACE ZN, Heating, 22486.04939, 28107.56174, 1.02047, 1.27558, OTTAWA=MACDONALD-CARTIER INTL ANN HTG 99.6% CONDNS DB, 1/21 08:00:00, -24.20000, 4.26780E-004, 436.11510, 17.45094, 0.17502, 0.00000
 Zone Sizing Information, STORY 2 SOUTH PERIMETER SPACE ZN, Cooling, 27494.28070, 31618.42281, 2.26798, 2.60818, OTTAWA=MACDONALD-CARTIER INTL ANN CLG .4% CONDNS DB=>MWB, 7/21 12:50:00, 29.96033, 1.30168E-002, 436.11510, 17.45094, 0.17502, 0.00000
 Zone Sizing Information, STORY 2 SOUTH PERIMETER SPACE ZN, Heating, 22288.92675, 27861.15844, 1.01147, 1.26433, OTTAWA=MACDONALD-CARTIER INTL ANN HTG 99.6% CONDNS DB, 1/21 08:00:00, -24.20000, 4.26780E-004, 436.11510, 17.45094, 0.17502, 0.00000
 Zone Sizing Information, STORY 2 WEST PERIMETER SPACE ZN, Cooling, 44602.36076, 51292.71488, 3.67922, 4.23110, OTTAWA=MACDONALD-CARTIER INTL ANN CLG .4% CONDNS DB=>MWB, 7/21 17:00:00, 29.18600, 1.30168E-002, 436.11510, 17.45094, 0.17502, 0.00000
 Zone Sizing Information, STORY 2 WEST PERIMETER SPACE ZN, Heating, 22486.04939, 28107.56174, 1.02047, 1.27558, OTTAWA=MACDONALD-CARTIER INTL ANN HTG 99.6% CONDNS DB, 1/21 08:00:00, -24.20000, 4.26780E-004, 436.11510, 17.45094, 0.17502, 0.00000
! <Component Sizing Information>, Component Type, Component Name, Input Field Description, Value
 Component Sizing Information, ZoneHVAC:IdealLoadsAirSystem, ZONE HVAC IDEAL LOADS AIR SYSTEM 1, User-Specified Maximum Heating Air Flow Rate [m3/s], 0.00000
 Component Sizing Information, ZoneHVAC:IdealLoadsAirSystem, ZONE HVAC IDEAL LOADS AIR SYSTEM 1, User-Specified Maximum Cooling Air Flow Rate [m3/s], 0.00000
 Component Sizing Information, ZoneHVAC:IdealLoadsAirSystem, ZONE HVAC IDEAL LOADS AIR SYSTEM 2, User-Specified Maximum Heating Air Flow Rate [m3/s], 0.00000
 Component Sizing Information, ZoneHVAC:IdealLoadsAirSystem, ZONE HVAC IDEAL LOADS AIR SYSTEM 2, User-Specified Maximum Cooling Air Flow Rate [m3/s], 0.00000
 Component Sizing Information, ZoneHVAC:IdealLoadsAirSystem, ZONE HVAC IDEAL LOADS AIR SYSTEM 3, User-Specified Maximum Heating Air Flow Rate [m3/s], 0.00000
 Component Sizing Information, ZoneHVAC:IdealLoadsAirSystem, ZONE HVAC IDEAL LOADS AIR SYSTEM 3, User-Specified Maximum Cooling Air Flow Rate [m3/s], 0.00000
 Component Sizing Information, ZoneHVAC:IdealLoadsAirSystem, ZONE HVAC IDEAL LOADS AIR SYSTEM 4, User-Specified Maximum Heating Air Flow Rate [m3/s], 0.00000
 Component Sizing Information, ZoneHVAC:IdealLoadsAirSystem, ZONE HVAC IDEAL LOADS AIR SYSTEM 4, User-Specified Maximum Cooling Air Flow Rate [m3/s], 0.00000
 Component Sizing Information, ZoneHVAC:IdealLoadsAirSystem, ZONE HVAC IDEAL LOADS AIR SYSTEM 5, User-Specified Maximum Heating Air Flow Rate [m3/s], 0.00000
 Component Sizing Information, ZoneHVAC:IdealLoadsAirSystem, ZONE HVAC IDEAL LOADS AIR SYSTEM 5, User-Specified Maximum Cooling Air Flow Rate [m3/s], 0.00000
 Component Sizing Information, ZoneHVAC:IdealLoadsAirSystem, ZONE HVAC IDEAL LOADS AIR SYSTEM 6, User-Specified Maximum Heating Air Flow Rate [m3/s], 0.00000
 Component Sizing Information, ZoneHVAC:IdealLoadsAirSystem, ZONE HVAC IDEAL LOADS AIR SYSTEM 6, User-Specified Maximum Cooling Air Flow Rate [m3/s], 0.00000
 Component Sizing Information, ZoneHVAC:IdealLoadsAirSystem, ZONE HVAC IDEAL LOADS AIR SYSTEM 7, User-Specified Maximum Heating Air Flow Rate [m3/s], 0.00000
 Component Sizing Information, ZoneHVAC:IdealLoadsAirSystem, ZONE HVAC IDEAL LOADS AIR SYSTEM 7, User-Specified Maximum Cooling Air Flow Rate [m3/s], 0.00000
 Component Sizing Information, ZoneHVAC:IdealLoadsAirSystem, ZONE HVAC IDEAL LOADS AIR SYSTEM 8, User-Specified Maximum Heating Air Flow Rate [m3/s], 0.00000
 Component Sizing Information, ZoneHVAC:IdealLoadsAirSystem, ZONE HVAC IDEAL LOADS AIR SYSTEM 8, User-Specified Maximum Cooling Air Flow Rate [m3/s], 0.00000
 Component Sizing Information, ZoneHVAC:IdealLoadsAirSystem, ZONE HVAC IDEAL LOADS AIR SYSTEM 9, User-Specified Maximum Heating Air Flow Rate [m3/s], 0.00000
 Component Sizing Information, ZoneHVAC:IdealLoadsAirSystem, ZONE HVAC IDEAL LOADS AIR SYSTEM 9, User-Specified Maximum Cooling Air Flow Rate [m3/s], 0.00000
 Component Sizing Information, ZoneHVAC:IdealLoadsAirSystem, ZONE HVAC IDEAL LOADS AIR SYSTEM 10, User-Specified Maximum Heating Air Flow Rate [m3/s], 0.00000
 Component Sizing Information, ZoneHVAC:IdealLoadsAirSystem, ZONE HVAC IDEAL LOADS AIR SYSTEM 10, User-Specified Maximum Cooling Air Flow Rate [m3/s], 0.00000
! <Environment>,Environment Name,Environment Type, Start Date, End Date, Start DayOfWeek, Duration {#days}, Source:Start DayOfWeek,  Use Daylight Saving, Use Holidays, Apply Weekend Holiday Rule,  Use Rain Values, Use Snow Values
! <Environment:Special Days>, Special Day Name, Special Day Type, Source, Start Date, Duration {#days}
! <Environment:Daylight Saving>, Daylight Saving Indicator, Source, Start Date, End Date
! <Environment:WarmupDays>, NumberofWarmupDays
Environment,OTTAWA=MACDONALD-CARTIER INTL ANN CLG .4% CONDNS DB=>MWB,SizingPeriod:DesignDay,07/21,07/21,SummerDesignDay,1,N/A,N/A,N/A,N/A,N/A,N/A
Environment:Daylight Saving,No,SizingPeriod:DesignDay
! <Environment:Design Day Data>, Max Dry-Bulb Temp {C}, Temp Range {dC}, Temp Range Ind Type, Hum Ind Value at Max Temp, Hum Ind Type,Pressure {Pa}, Wind Direction {deg CW from N}, Wind Speed {m/s}, Clearness, Rain, Snow
! <Environment:Design Day Misc>,DayOfYear,ASHRAE A Coeff,ASHRAE B Coeff,ASHRAE C Coeff,Solar Constant-Annual Variation,Eq of Time {minutes}, Solar Declination Angle {deg}, Solar Model
Environment:Design Day Data,30.60,10.10,DefaultMultipliers,99952,220,4.6,0.00,No,No
Environment:Design Day Misc,202,1084.4,0.2082,0.1365,1.0,-6.23,20.6,ASHRAETau
Environment:WarmupDays,  6
! <Tabular Report>,Style,Unit Conversion
Tabular Report,HTML,None
! <Warmup Convergence Information>,Zone Name,Environment Type/Name,Average Warmup Temperature Difference {deltaC},Std Dev Warmup Temperature Difference {deltaC},Max Temperature Pass/Fail Convergence,Min Temperature Pass/Fail Convergence,Average Warmup Load Difference {W},Std Dev Warmup Load Difference {W},Heating Load Pass/Fail Convergence,Cooling Load Pass/Fail Convergence
 Warmup Convergence Information,STORY 1 CORE SPACE ZN,SizingPeriod: OTTAWA=MACDONALD-CARTIER INTL ANN CLG .4% CONDNS DB=>MWB,2.2130123953E-002,5.4573444966E-002,Pass,Pass,0.2106656579,1.7325729183,Pass,Pass
 Warmup Convergence Information,STORY 1 EAST PERIMETER SPACE ZN,SizingPeriod: OTTAWA=MACDONALD-CARTIER INTL ANN CLG .4% CONDNS DB=>MWB,9.1199222046E-002,0.4489456778,Pass,Pass,0.2047370714,1.6197063222,Pass,Pass
 Warmup Convergence Information,STORY 1 NORTH PERIMETER SPACE ZN,SizingPeriod: OTTAWA=MACDONALD-CARTIER INTL ANN CLG .4% CONDNS DB=>MWB,3.4272044502E-002,0.1112005099,Pass,Pass,0.2221772011,1.7211586940,Pass,Pass
 Warmup Convergence Information,STORY 1 SOUTH PERIMETER SPACE ZN,SizingPeriod: OTTAWA=MACDONALD-CARTIER INTL ANN CLG .4% CONDNS DB=>MWB,3.0717825721E-002,0.1001747837,Pass,Pass,0.2007450047,1.6264014369,Pass,Pass
 Warmup Convergence Information,STORY 1 WEST PERIMETER SPACE ZN,SizingPeriod: OTTAWA=MACDONALD-CARTIER INTL ANN CLG .4% CONDNS DB=>MWB,5.2941874629E-002,0.2028843929,Pass,Pass,0.2339918241,1.6281442723,Pass,Pass
 Warmup Convergence Information,STORY 2 CORE SPACE ZN,SizingPeriod: OTTAWA=MACDONALD-CARTIER INTL ANN CLG .4% CONDNS DB=>MWB,2.3315981535E-002,5.4927695136E-002,Pass,Pass,0.2383590570,1.8712842860,Pass,Pass
 Warmup Convergence Information,STORY 2 EAST PERIMETER SPACE ZN,SizingPeriod: OTTAWA=MACDONALD-CARTIER INTL ANN CLG .4% CONDNS DB=>MWB,0.1059535126,0.5340149436,Pass,Pass,0.2143021095,1.7509757000,Pass,Pass
 Warmup Convergence Information,STORY 2 NORTH PERIMETER SPACE ZN,SizingPeriod: OTTAWA=MACDONALD-CARTIER INTL ANN CLG .4% CONDNS DB=>MWB,3.8655161437E-002,0.1254991187,Pass,Pass,0.2526865280,1.9344404786,Pass,Pass
 Warmup Convergence Information,STORY 2 SOUTH PERIMETER SPACE ZN,SizingPeriod: OTTAWA=MACDONALD-CARTIER INTL ANN CLG .4% CONDNS DB=>MWB,3.0693992420E-002,8.9244803688E-002,Pass,Pass,0.2241479855,1.7935860622,Pass,Pass
 Warmup Convergence Information,STORY 2 WEST PERIMETER SPACE ZN,SizingPeriod: OTTAWA=MACDONALD-CARTIER INTL ANN CLG .4% CONDNS DB=>MWB,4.4987643099E-002,0.1590881663,Pass,Pass,0.2247218447,1.6502892183,Pass,Pass
Environment,OTTAWA=MACDONALD-CARTIER INTL ANN HTG 99.6% CONDNS DB,SizingPeriod:DesignDay,01/21,01/21,WinterDesignDay,1,N/A,N/A,N/A,N/A,N/A,N/A
Environment:Daylight Saving,No,SizingPeriod:DesignDay
Environment:Design Day Data,-24.20,0.00,DefaultMultipliers,99952,290,3.5,0.00,No,No
Environment:Design Day Misc, 21,1229.0,0.1415,5.7310E-002,1.0,-11.15,-20.1,ASHRAEClearSky
Environment:WarmupDays,  6
 Warmup Convergence Information,STORY 1 CORE SPACE ZN,SizingPeriod: OTTAWA=MACDONALD-CARTIER INTL ANN HTG 99.6% CONDNS DB,6.1088117014E-002,0.3089938682,Pass,Pass,0.7273766054,4.6204019834,Pass,Pass
 Warmup Convergence Information,STORY 1 EAST PERIMETER SPACE ZN,SizingPeriod: OTTAWA=MACDONALD-CARTIER INTL ANN HTG 99.6% CONDNS DB,5.6508776617E-002,0.3338528736,Pass,Pass,7.4230824653E-002,0.3698727058,Pass,Pass
 Warmup Convergence Information,STORY 1 NORTH PERIMETER SPACE ZN,SizingPeriod: OTTAWA=MACDONALD-CARTIER INTL ANN HTG 99.6% CONDNS DB,5.6485542550E-002,0.3343324468,Pass,Pass,7.6864704149E-002,0.3848208328,Pass,Pass
 Warmup Convergence Information,STORY 1 SOUTH PERIMETER SPACE ZN,SizingPeriod: OTTAWA=MACDONALD-CARTIER INTL ANN HTG 99.6% CONDNS DB,5.6508776617E-002,0.3338528736,Pass,Pass,7.4230824653E-002,0.3698727058,Pass,Pass
 Warmup Convergence Information,STORY 1 WEST PERIMETER SPACE ZN,SizingPeriod: OTTAWA=MACDONALD-CARTIER INTL ANN HTG 99.6% CONDNS DB,5.6485542550E-002,0.3343324468,Pass,Pass,7.6864704150E-002,0.3848208328,Pass,Pass
 Warmup Convergence Information,STORY 2 CORE SPACE ZN,SizingPeriod: OTTAWA=MACDONALD-CARTIER INTL ANN HTG 99.6% CONDNS DB,5.8216031793E-002,0.3267207394,Pass,Pass,0.3020431487,2.0646935647,Pass,Pass
 Warmup Convergence Information,STORY 2 EAST PERIMETER SPACE ZN,SizingPeriod: OTTAWA=MACDONALD-CARTIER INTL ANN HTG 99.6% CONDNS DB,5.5689485406E-002,0.3476388118,Pass,Pass,3.7544559633E-002,0.1346149865,Pass,Pass
 Warmup Convergence Information,STORY 2 NORTH PERIMETER SPACE ZN,SizingPeriod: OTTAWA=MACDONALD-CARTIER INTL ANN HTG 99.6% CONDNS DB,5.5678182419E-002,0.3479233335,Pass,Pass,3.7089740594E-002,0.1328137587,Pass,Pass
 Warmup Convergence Information,STORY 2 SOUTH PERIMETER SPACE ZN,SizingPeriod: OTTAWA=MACDONALD-CARTIER INTL ANN HTG 99.6% CONDNS DB,5.5689485406E-002,0.3476388118,Pass,Pass,3.7544559633E-002,0.1346149865,Pass,Pass
 Warmup Convergence Information,STORY 2 WEST PERIMETER SPACE ZN,SizingPeriod: OTTAWA=MACDONALD-CARTIER INTL ANN HTG 99.6% CONDNS DB,5.5678182419E-002,0.3479233335,Pass,Pass,3.7089740594E-002,0.1328137587,Pass,Pass
! <Program Control Information:Threads/Parallel Sims>, Threading Supported,Maximum Number of Threads, Env Set Threads (OMP_NUM_THREADS), EP Env Set Threads (EP_OMP_NUM_THREADS), IDF Set Threads, Number of Threads Used (Interior Radiant Exchange), Number Nominal Surfaces, Number Parallel Sims
Program Control:Threads/Parallel Sims, No,1, N/A, N/A, N/A, N/A, N/A, N/A
End of Data
