Program Version,EnergyPlus, Version 8.9.0-eba93e8e1b, YMD=2019.08.13 13:50
! <Version>, Version ID
 Version, 8.9
! <Timesteps per Hour>, #TimeSteps, Minutes per TimeStep {minutes}
 Timesteps per Hour,  6, 10
! <System Convergence Limits>, Minimum System TimeStep {minutes}, Max HVAC Iterations, Minimum Plant Iterations, Maximum Plant Iterations
 System Convergence Limits, 1, 20, 2, 8
! <Simulation Control>, Do Zone Sizing, Do System Sizing, Do Plant Sizing, Do Design Days, Do Weather Simulation, Do HVAC Sizing Simulation
 Simulation Control, Yes, Yes, Yes, No, Yes, No
! <Output Reporting Tolerances>, Tolerance for Time Heating Setpoint Not Met, Tolerance for Zone Cooling Setpoint Not Met Time
 Output Reporting Tolerances, 1.000, 1.000, 
! <Site:GroundTemperature:BuildingSurface>,Jan{C},Feb{C},Mar{C},Apr{C},May{C},Jun{C},Jul{C},Aug{C},Sep{C},Oct{C},Nov{C},Dec{C}
 Site:GroundTemperature:BuildingSurface,  19.53,  19.50,  19.54,  19.60,  20.00,  21.64,  22.23,  22.38,  21.45,  20.12,  19.80,  19.63
! <Site:GroundTemperature:FCfactorMethod>,Jan{C},Feb{C},Mar{C},Apr{C},May{C},Jun{C},Jul{C},Aug{C},Sep{C},Oct{C},Nov{C},Dec{C}
 Site:GroundTemperature:FCfactorMethod, -21.09, -22.83, -19.75, -14.93,  -2.32,   7.41,  13.97,  15.97,  12.57,   5.01,  -5.08, -14.45
! <Site:GroundTemperature:Shallow>,Jan{C},Feb{C},Mar{C},Apr{C},May{C},Jun{C},Jul{C},Aug{C},Sep{C},Oct{C},Nov{C},Dec{C}
 Site:GroundTemperature:Shallow,  13.00,  13.00,  13.00,  13.00,  13.00,  13.00,  13.00,  13.00,  13.00,  13.00,  13.00,  13.00
! <Site:GroundTemperature:Deep>,Jan{C},Feb{C},Mar{C},Apr{C},May{C},Jun{C},Jul{C},Aug{C},Sep{C},Oct{C},Nov{C},Dec{C}
 Site:GroundTemperature:Deep,  16.00,  16.00,  16.00,  16.00,  16.00,  16.00,  16.00,  16.00,  16.00,  16.00,  16.00,  16.00
! <Site:GroundReflectance>,Jan{dimensionless},Feb{dimensionless},Mar{dimensionless},Apr{dimensionless},May{dimensionless},Jun{dimensionless},Jul{dimensionless},Aug{dimensionless},Sep{dimensionless},Oct{dimensionless},Nov{dimensionless},Dec{dimensionless}
 Site:GroundReflectance,  0.20,  0.20,  0.20,  0.20,  0.20,  0.20,  0.20,  0.20,  0.20,  0.20,  0.20,  0.20
! <Site:GroundReflectance:SnowModifier>, Normal, Daylighting {dimensionless}
 Site:GroundReflectance:SnowModifier,   1.000,   1.000
! <Site:GroundReflectance:Snow>,Jan{dimensionless},Feb{dimensionless},Mar{dimensionless},Apr{dimensionless},May{dimensionless},Jun{dimensionless},Jul{dimensionless},Aug{dimensionless},Sep{dimensionless},Oct{dimensionless},Nov{dimensionless},Dec{dimensionless}
 Site:GroundReflectance:Snow,  0.20,  0.20,  0.20,  0.20,  0.20,  0.20,  0.20,  0.20,  0.20,  0.20,  0.20,  0.20
! <Site:GroundReflectance:Snow:Daylighting>,Jan{dimensionless},Feb{dimensionless},Mar{dimensionless},Apr{dimensionless},May{dimensionless},Jun{dimensionless},Jul{dimensionless},Aug{dimensionless},Sep{dimensionless},Oct{dimensionless},Nov{dimensionless},Dec{dimensionless}
 Site:GroundReflectance:Snow:Daylighting,  0.20,  0.20,  0.20,  0.20,  0.20,  0.20,  0.20,  0.20,  0.20,  0.20,  0.20,  0.20
! <Environment:Weather Station>,Wind Sensor Height Above Ground {m},Wind Speed Profile Exponent {},Wind Speed Profile Boundary Layer Thickness {m},Air Temperature Sensor Height Above Ground {m},Wind Speed Modifier Coefficient-Internal,Temperature Modifier Coefficient-Internal
Environment:Weather Station,10.000,0.140,270.000,1.500,1.586,9.750E-003
! <Site:Location>, Location Name, Latitude {N+/S- Deg}, Longitude {E+/W- Deg},  Time Zone Number {GMT+/-}, Elevation {m},  Standard Pressure at Elevation {Pa}, Standard RhoAir at Elevation
Site:Location,Yellowknife AP NT CAN CWEC2016 WMO#=719360,62.46,-114.44,-7.00,205.70,98878,1.1752
! <Building Information>, Building Name,North Axis {deg},Terrain,  Loads Convergence Tolerance Value,Temperature Convergence Tolerance Value,  Solar Distribution,Maximum Number of Warmup Days,Minimum Number of Warmup Days
 Building Information,RetailStripmall-CAN_NT_Yellowknife.AP.719360_CWEC2016.epw created: 2019-08-08 04:23:39 +0000,0.000,Suburbs,4.00000E-002,0.40000,FullExterior,25,6
! <Inside Convection Algorithm>, Algorithm {Simple | TARP | CeilingDiffuser | AdaptiveConvectionAlgorithm}
Inside Convection Algorithm,TARP
! <Outside Convection Algorithm>, Algorithm {SimpleCombined | TARP | MoWitt | DOE-2 | AdaptiveConvectionAlgorithm}
Outside Convection Algorithm,TARP
! <Sky Radiance Distribution>, Value {Anisotropic}
Sky Radiance Distribution,Anisotropic
! <Zone Air Solution Algorithm>, Value {ThirdOrderBackwardDifference | AnalyticalSolution | EulerMethod}
 Zone Air Solution Algorithm, ThirdOrderBackwardDifference
! <Zone Air Carbon Dioxide Balance Simulation>, Simulation {Yes/No}, Carbon Dioxide Concentration
 Zone Air Carbon Dioxide Balance Simulation, No,N/A
! <Zone Air Generic Contaminant Balance Simulation>, Simulation {Yes/No}, Generic Contaminant Concentration
 Zone Air Generic Contaminant Balance Simulation, No,N/A
! <Zone Air Mass Flow Balance Simulation>, Enforce Mass Balance, Adjust Zone Mixing, Adjust Zone Infiltration {AddInfiltration | AdjustInfiltration | None}, Infiltration Zones {MixingSourceZonesOnly | AllZones}
 Zone Air Mass Flow Balance Simulation, No,N/A,N/A,N/A
! <HVACSystemRootFindingAlgorithm>, Value {RegulaFalsi | Bisection | BisectionThenRegulaFalsi | RegulaFalsiThenBisection}
 HVACSystemRootFindingAlgorithm, RegulaFalsi
! <Environment:Site Atmospheric Variation>,Wind Speed Profile Exponent {},Wind Speed Profile Boundary Layer Thickness {m},Air Temperature Gradient Coefficient {K/m}
Environment:Site Atmospheric Variation,0.220,370.000,6.500000E-003
! <Surface Geometry>,Starting Corner,Vertex Input Direction,Coordinate System,Daylight Reference Point Coordinate System,Rectangular (Simple) Surface Coordinate System
 Surface Geometry,UpperLeftCorner,Counterclockwise,RelativeCoordinateSystem,RelativeCoordinateSystem,RelativeToZoneOrigin
! <Surface Heat Transfer Algorithm>, Value {CTF - ConductionTransferFunction | EMPD - MoisturePenetrationDepthConductionTransferFunction | CondFD - ConductionFiniteDifference | HAMT - CombinedHeatAndMoistureFiniteElement} - Description,Inside Surface Max Temperature Limit{C}, Surface Convection Coefficient Lower Limit {W/m2-K}, Surface Convection Coefficient Upper Limit {W/m2-K}
Surface Heat Transfer Algorithm, CTF - ConductionTransferFunction,200,0.10,1000.0
! <Shading Summary>, Number of Fixed Detached Shades, Number of Building Detached Shades, Number of Attached Shades
 Shading Summary,0,0,20
! <Zone Summary>, Number of Zones, Number of Zone Surfaces, Number of SubSurfaces
 Zone Summary,3,75,22
! <Zone Information>,Zone Name,North Axis {deg},Origin X-Coordinate {m},Origin Y-Coordinate {m},Origin Z-Coordinate {m},Centroid X-Coordinate {m},Centroid Y-Coordinate {m},Centroid Z-Coordinate {m},Type,Zone Multiplier,Zone List Multiplier,Minimum X {m},Maximum X {m},Minimum Y {m},Maximum Y {m},Minimum Z {m},Maximum Z {m},Ceiling Height {m},Volume {m3},Zone Inside Convection Algorithm {Simple-Detailed-CeilingDiffuser-TrombeWall},Zone Outside Convection Algorithm {Simple-Detailed-Tarp-MoWitt-DOE-2-BLAST}, Floor Area {m2},Exterior Gross Wall Area {m2},Exterior Net Wall Area {m2},Exterior Window Area {m2}, Number of Surfaces, Number of SubSurfaces, Number of Shading SubSurfaces,  Part of Total Building Area
 Zone Information, ALL_ST=SALES AREA_FL=BUILDING STORY 1_SCH=C,0.0,0.00,0.00,0.00,49.53,11.43,2.59,1,1,1,15.24,83.82,0.00,22.86,0.00,5.18,5.18,8120.89,TARP,TARP,1567.74,710.49,639.44,71.05,34,16,16,Yes
 Zone Information, ALL_ST=SALES AREA_FL=BUILDING STORY 1_SCH=C 1,0.0,0.00,0.00,0.00,87.63,11.43,2.59,1,1,1,83.82,91.44,0.00,22.86,0.00,5.18,5.18,902.32,TARP,TARP,174.19,197.36,177.62,19.74,6,3,2,Yes
 Zone Information, ALL_ST=SALES AREA_FL=BUILDING STORY 1_SCH=C 2,0.0,0.00,0.00,0.00,7.62,11.43,2.59,1,1,1,0.00,15.24,0.00,22.86,0.00,5.18,5.18,1804.64,TARP,TARP,348.39,276.30,248.67,27.63,6,3,2,Yes
! <Zone Internal Gains Nominal>,Zone Name, Floor Area {m2},# Occupants,Area per Occupant {m2/person},Occupant per Area {person/m2},Interior Lighting {W/m2},Electric Load {W/m2},Gas Load {W/m2},Other Load {W/m2},Hot Water Eq {W/m2},Steam Equipment {W/m2},Sum Loads per Area {W/m2},Outdoor Controlled Baseboard Heat
 Zone Internal Gains Nominal, ALL_ST=SALES AREA_FL=BUILDING STORY 1_SCH=C,1567.74,52.3,29.989,3.335E-002,5.650,1.250,0.000,0.000,0.000,0.000,6.900,No
 Zone Internal Gains Nominal, ALL_ST=SALES AREA_FL=BUILDING STORY 1_SCH=C 1,174.19,5.8,29.989,3.335E-002,5.650,1.250,0.000,0.000,0.000,0.000,6.900,No
 Zone Internal Gains Nominal, ALL_ST=SALES AREA_FL=BUILDING STORY 1_SCH=C 2,348.39,11.6,29.989,3.335E-002,5.650,1.250,0.000,0.000,0.000,0.000,6.900,No
! <People Internal Gains Nominal>,Name,Schedule Name,Zone Name,Zone Floor Area {m2},# Zone Occupants,Number of People {},People/Floor Area {person/m2},Floor Area per person {m2/person},Fraction Radiant,Fraction Convected,Sensible Fraction Calculation,Activity level,ASHRAE 55 Warnings,Carbon Dioxide Generation Rate,Nominal Minimum Number of People,Nominal Maximum Number of People
 People Internal Gains Nominal, ALL_ST=SALES AREA_FL=BUILDING STORY 1_SCH=C SPACE FUNCTION SALES AREA PEOPLE,NECB-C-OCCUPANCY,ALL_ST=SALES AREA_FL=BUILDING STORY 1_SCH=C,1567.74,52.3,52.3,3.335E-002,29.989,0.300,0.700,AutoCalculate,NECB-ACTIVITY,No,3.8200E-008,0,47
 People Internal Gains Nominal, ALL_ST=SALES AREA_FL=BUILDING STORY 1_SCH=C 1 SPACE FUNCTION SALES AREA PEOPLE,NECB-C-OCCUPANCY,ALL_ST=SALES AREA_FL=BUILDING STORY 1_SCH=C 1,174.19,5.8,5.8,3.335E-002,29.989,0.300,0.700,AutoCalculate,NECB-ACTIVITY,No,3.8200E-008,0,5
 People Internal Gains Nominal, ALL_ST=SALES AREA_FL=BUILDING STORY 1_SCH=C 2 SPACE FUNCTION SALES AREA PEOPLE,NECB-C-OCCUPANCY,ALL_ST=SALES AREA_FL=BUILDING STORY 1_SCH=C 2,348.39,11.6,11.6,3.335E-002,29.989,0.300,0.700,AutoCalculate,NECB-ACTIVITY,No,3.8200E-008,0,10
! <Lights Internal Gains Nominal>,Name,Schedule Name,Zone Name,Zone Floor Area {m2},# Zone Occupants,Lighting Level {W},Lights/Floor Area {W/m2},Lights per person {W/person},Fraction Return Air,Fraction Radiant,Fraction Short Wave,Fraction Convected,Fraction Replaceable,End-Use Category,Nominal Minimum Lighting Level {W},Nominal Maximum Lighting Level {W}
 Lights Internal Gains Nominal, ALL_ST=SALES AREA_FL=BUILDING STORY 1_SCH=C SPACE FUNCTION SALES AREA LIGHTS 85.0 PERCENT REDUCTION,NECB-C-OCCUPANCY-NECB-C-LIGHTING-0.0-0.0-0.67-LIGHT RULESET,ALL_ST=SALES AREA_FL=BUILDING STORY 1_SCH=C,1567.74,52.3,8857.724,5.650,169.438,0.000,0.500,0.200,0.300,1.000,General,442.886,7971.952
 Lights Internal Gains Nominal, ALL_ST=SALES AREA_FL=BUILDING STORY 1_SCH=C 1 SPACE FUNCTION SALES AREA LIGHTS 85.0 PERCENT REDUCTION,NECB-C-OCCUPANCY-NECB-C-LIGHTING-0.0-0.0-0.67-LIGHT RULESET,ALL_ST=SALES AREA_FL=BUILDING STORY 1_SCH=C 1,174.19,5.8,984.192,5.650,169.438,0.000,0.500,0.200,0.300,1.000,General,49.210,885.772
 Lights Internal Gains Nominal, ALL_ST=SALES AREA_FL=BUILDING STORY 1_SCH=C 2 SPACE FUNCTION SALES AREA LIGHTS 85.0 PERCENT REDUCTION,NECB-C-OCCUPANCY-NECB-C-LIGHTING-0.0-0.0-0.67-LIGHT RULESET,ALL_ST=SALES AREA_FL=BUILDING STORY 1_SCH=C 2,348.39,11.6,1968.383,5.650,169.438,0.000,0.500,0.200,0.300,1.000,General,98.419,1771.545
! <ElectricEquipment Internal Gains Nominal>,Name,Schedule Name,Zone Name,Zone Floor Area {m2},# Zone Occupants,Equipment Level {W},Equipment/Floor Area {W/m2},Equipment per person {W/person},Fraction Latent,Fraction Radiant,Fraction Lost,Fraction Convected,End-Use SubCategory,Nominal Minimum Equipment Level {W},Nominal Maximum Equipment Level {W}
 ElectricEquipment Internal Gains Nominal, ALL_ST=SALES AREA_FL=BUILDING STORY 1_SCH=C SPACE FUNCTION SALES AREA ELEC EQUIP 50.0 PERCENT REDUCTION,NECB-C-ELECTRIC-EQUIPMENT,ALL_ST=SALES AREA_FL=BUILDING STORY 1_SCH=C,1567.74,52.3,1960.386,1.250,37.500,0.000,0.500,0.000,0.500,General,98.019,1764.347
 ElectricEquipment Internal Gains Nominal, ALL_ST=SALES AREA_FL=BUILDING STORY 1_SCH=C 1 SPACE FUNCTION SALES AREA ELEC EQUIP 50.0 PERCENT REDUCTION,NECB-C-ELECTRIC-EQUIPMENT,ALL_ST=SALES AREA_FL=BUILDING STORY 1_SCH=C 1,174.19,5.8,217.821,1.250,37.500,0.000,0.500,0.000,0.500,General,10.891,196.039
 ElectricEquipment Internal Gains Nominal, ALL_ST=SALES AREA_FL=BUILDING STORY 1_SCH=C 2 SPACE FUNCTION SALES AREA ELEC EQUIP 50.0 PERCENT REDUCTION,NECB-C-ELECTRIC-EQUIPMENT,ALL_ST=SALES AREA_FL=BUILDING STORY 1_SCH=C 2,348.39,11.6,435.641,1.250,37.500,0.000,0.500,0.000,0.500,General,21.782,392.077
! <Shadowing/Sun Position Calculations Annual Simulations>, Calculation Method, Value {days}, Allowable Number Figures in Shadow Overlap {}, Polygon Clipping Algorithm, Sky Diffuse Modeling Algorithm, External Shading Calculation Method, Output External Shading Calculation Results, Disable Self-Shading Within Shading Zone Groups, Disable Self-Shading From Shading Zone Groups to Other Zones
Shadowing/Sun Position Calculations Annual Simulations,AverageOverDaysInFrequency,20,15000,SutherlandHodgman,SimpleSkyDiffuseModeling,InternalCalculation,No,No,No
! <Water Heater Information>,Type,Name,Volume {m3},Maximum Capacity {W},Standard Rated Recovery Efficiency, Standard Rated Energy Factor
! <Heat Pump Water Heater Information>,Type,Name,Volume {m3},Maximum Capacity {W},Standard Rated Recovery Efficiency,Standard Rated Energy Factor,"DX Coil Total Cooling Rate {W, HPWH Only}"
! <ZoneInfiltration Airflow Stats Nominal>,Name,Schedule Name,Zone Name, Zone Floor Area {m2}, # Zone Occupants,Design Volume Flow Rate {m3/s},Volume Flow Rate/Floor Area {m3/s/m2},Volume Flow Rate/Exterior Surface Area {m3/s/m2},ACH - Air Changes per Hour,Equation A - Constant Term Coefficient {},Equation B - Temperature Term Coefficient {1/C},Equation C - Velocity Term Coefficient {s/m}, Equation D - Velocity Squared Term Coefficient {s2/m2}
 ZoneInfiltration Airflow Stats Nominal, LGSTORE2 INFILTRATION,ALWAYS ON DISCRETE,ALL_ST=SALES AREA_FL=BUILDING STORY 1_SCH=C,1567.74,52.3,3.483E-002,2.222E-005,1.529E-005,1.544E-002,0.000,0.000,0.224,0.000
 ZoneInfiltration Airflow Stats Nominal, SMSTORE1 INFILTRATION,ALWAYS ON DISCRETE,ALL_ST=SALES AREA_FL=BUILDING STORY 1_SCH=C,1567.74,52.3,1.742E-002,1.111E-005,7.645E-006,7.721E-003,0.000,0.000,0.224,0.000
 ZoneInfiltration Airflow Stats Nominal, SMSTORE2 INFILTRATION,ALWAYS ON DISCRETE,ALL_ST=SALES AREA_FL=BUILDING STORY 1_SCH=C,1567.74,52.3,1.742E-002,1.111E-005,7.645E-006,7.721E-003,0.000,0.000,0.224,0.000
 ZoneInfiltration Airflow Stats Nominal, SMSTORE3 INFILTRATION,ALWAYS ON DISCRETE,ALL_ST=SALES AREA_FL=BUILDING STORY 1_SCH=C,1567.74,52.3,1.742E-002,1.111E-005,7.645E-006,7.721E-003,0.000,0.000,0.224,0.000
 ZoneInfiltration Airflow Stats Nominal, SMSTORE4 INFILTRATION,ALWAYS ON DISCRETE,ALL_ST=SALES AREA_FL=BUILDING STORY 1_SCH=C,1567.74,52.3,1.742E-002,1.111E-005,7.645E-006,7.721E-003,0.000,0.000,0.224,0.000
 ZoneInfiltration Airflow Stats Nominal, SMSTORE5 INFILTRATION,ALWAYS ON DISCRETE,ALL_ST=SALES AREA_FL=BUILDING STORY 1_SCH=C,1567.74,52.3,1.742E-002,1.111E-005,7.645E-006,7.721E-003,0.000,0.000,0.224,0.000
 ZoneInfiltration Airflow Stats Nominal, SMSTORE6 INFILTRATION,ALWAYS ON DISCRETE,ALL_ST=SALES AREA_FL=BUILDING STORY 1_SCH=C,1567.74,52.3,1.742E-002,1.111E-005,7.645E-006,7.721E-003,0.000,0.000,0.224,0.000
 ZoneInfiltration Airflow Stats Nominal, SMSTORE7 INFILTRATION,ALWAYS ON DISCRETE,ALL_ST=SALES AREA_FL=BUILDING STORY 1_SCH=C,1567.74,52.3,1.742E-002,1.111E-005,7.645E-006,7.721E-003,0.000,0.000,0.224,0.000
 ZoneInfiltration Airflow Stats Nominal, SMSTORE8 INFILTRATION,ALWAYS ON DISCRETE,ALL_ST=SALES AREA_FL=BUILDING STORY 1_SCH=C 1,174.19,5.8,2.556E-002,1.468E-004,6.880E-005,0.102,0.000,0.000,0.224,0.000
 ZoneInfiltration Airflow Stats Nominal, LGSTORE1 INFILTRATION,ALWAYS ON DISCRETE,ALL_ST=SALES AREA_FL=BUILDING STORY 1_SCH=C 2,348.39,11.6,4.298E-002,1.234E-004,6.880E-005,8.574E-002,0.000,0.000,0.224,0.000
! <AirFlow Model>, Simple
 AirFlow Model, Simple
! <RoomAir Model>, Zone Name, Mixing/Mundt/UCSDDV/UCSDCV/UCSDUFI/UCSDUFE/User Defined
RoomAir Model,ALL_ST=SALES AREA_FL=BUILDING STORY 1_SCH=C,Mixing/Well-Stirred
RoomAir Model,ALL_ST=SALES AREA_FL=BUILDING STORY 1_SCH=C 1,Mixing/Well-Stirred
RoomAir Model,ALL_ST=SALES AREA_FL=BUILDING STORY 1_SCH=C 2,Mixing/Well-Stirred
! <AirflowNetwork Model:Control>, No Multizone or Distribution/Multizone with Distribution/Multizone without Distribution/Multizone with Distribution only during Fan Operation
AirflowNetwork Model:Control,NoMultizoneOrDistribution
! <Zone Volume Capacitance Multiplier>, Sensible Heat Capacity Multiplier, Moisture Capacity Multiplier, Carbon Dioxide Capacity Multiplier, Generic Contaminant Capacity Multiplier
Zone Volume Capacitance Multiplier,   1.000 ,   1.000,   1.000,   1.000
! <Load Timesteps in Zone Design Calculation Averaging Window>, Value
 Load Timesteps in Zone Design Calculation Averaging Window,    6
! <Heating Sizing Factor Information>, Sizing Factor ID, Value
 Heating Sizing Factor Information, Global,   1.3000    
 Heating Sizing Factor Information, Zone ALL_ST=SALES AREA_FL=BUILDING STORY 1_SCH=C,   1.3000    
 Heating Sizing Factor Information, Zone ALL_ST=SALES AREA_FL=BUILDING STORY 1_SCH=C 1,   1.3000    
 Heating Sizing Factor Information, Zone ALL_ST=SALES AREA_FL=BUILDING STORY 1_SCH=C 2,   1.3000    
! <Cooling Sizing Factor Information>, Sizing Factor ID, Value
 Cooling Sizing Factor Information, Global,   1.1000    
 Cooling Sizing Factor Information, Zone ALL_ST=SALES AREA_FL=BUILDING STORY 1_SCH=C,   1.1000    
 Cooling Sizing Factor Information, Zone ALL_ST=SALES AREA_FL=BUILDING STORY 1_SCH=C 1,   1.1000    
 Cooling Sizing Factor Information, Zone ALL_ST=SALES AREA_FL=BUILDING STORY 1_SCH=C 2,   1.1000    
! <Zone Sizing Information>, Zone Name, Load Type, Calc Des Load {W}, User Des Load {W}, Calc Des Air Flow Rate {m3/s}, User Des Air Flow Rate {m3/s}, Design Day Name, Date/Time of Peak, Temperature at Peak {C}, Humidity Ratio at Peak {kgWater/kgDryAir}, Floor Area {m2}, # Occupants, Calc Outdoor Air Flow Rate {m3/s}, Calc DOAS Heat Addition Rate {W}
 Zone Sizing Information, ALL_ST=SALES AREA_FL=BUILDING STORY 1_SCH=C, Cooling, 27006.44218, 29707.08640, 2.04689, 2.25158, YELLOWKNIFE AP ANN CLG .4% CONDNS DB=>MWB, 7/21 13:40:00, 25.26833, 7.78272E-003, 1567.73880, 52.27695, 1.83175, 0.00000
 Zone Sizing Information, ALL_ST=SALES AREA_FL=BUILDING STORY 1_SCH=C, Heating, 33567.72878, 43638.04741, 1.24652, 1.83175, YELLOWKNIFE AP ANN HTG 99.6% CONDNS DB, 1/21 08:30:00, -40.50000, 7.63571E-005, 1567.73880, 52.27695, 1.83175, 0.00000
 Zone Sizing Information, ALL_ST=SALES AREA_FL=BUILDING STORY 1_SCH=C 1, Cooling, 8175.31252, 8992.84377, 0.55938, 0.61532, YELLOWKNIFE AP ANN CLG .4% CONDNS DB=>MWB, 7/21 08:00:00, 19.55400, 7.78272E-003, 174.19320, 5.80855, 0.20353, 0.00000
 Zone Sizing Information, ALL_ST=SALES AREA_FL=BUILDING STORY 1_SCH=C 1, Heating, 5248.54567, 6823.10937, 0.19906, 0.25877, YELLOWKNIFE AP ANN HTG 99.6% CONDNS DB, 1/21 08:40:00, -40.50000, 7.63571E-005, 174.19320, 5.80855, 0.20353, 0.00000
 Zone Sizing Information, ALL_ST=SALES AREA_FL=BUILDING STORY 1_SCH=C 2, Cooling, 8390.30304, 9229.33335, 0.63593, 0.69952, YELLOWKNIFE AP ANN CLG .4% CONDNS DB=>MWB, 7/21 17:00:00, 24.29400, 7.78272E-003, 348.38640, 11.61710, 0.40705, 0.00000
 Zone Sizing Information, ALL_ST=SALES AREA_FL=BUILDING STORY 1_SCH=C 2, Heating, 8291.99766, 10779.59695, 0.30853, 0.40705, YELLOWKNIFE AP ANN HTG 99.6% CONDNS DB, 1/21 08:30:00, -40.50000, 7.63571E-005, 348.38640, 11.61710, 0.40705, 0.00000
! <System Sizing Information>, System Name, Load Type, Peak Load Kind, User Design Capacity, Calc Des Air Flow Rate [m3/s], User Des Air Flow Rate [m3/s], Design Day Name, Date/Time of Peak
 System Sizing Information, SYS_3_PSZ ALL_ST=SALES AREA_FL=BUILDING STORY 1_SCH=C, Cooling, Sensible, 31992.12, 2.25158, 2.25158, YELLOWKNIFE AP ANN CLG .4% CONDNS DB=>MWB, 7/21 05:00:00
 System Sizing Information, SYS_3_PSZ ALL_ST=SALES AREA_FL=BUILDING STORY 1_SCH=C, Heating, Sensible, 180625.18, 1.83175, 1.83175, YELLOWKNIFE AP ANN HTG 99.6% CONDNS DB, 1/21 00:10:00
 System Sizing Information, SYS_3_PSZ ALL_ST=SALES AREA_FL=BUILDING STORY 1_SCH=C 1, Cooling, Sensible, 6916.59, 0.61532, 0.61532, YELLOWKNIFE AP ANN CLG .4% CONDNS DB=>MWB, 7/21 05:00:00
 System Sizing Information, SYS_3_PSZ ALL_ST=SALES AREA_FL=BUILDING STORY 1_SCH=C 1, Heating, Sensible, 21493.10, 0.25877, 0.25877, YELLOWKNIFE AP ANN HTG 99.6% CONDNS DB, 1/21 09:00:00
 System Sizing Information, SYS_3_PSZ ALL_ST=SALES AREA_FL=BUILDING STORY 1_SCH=C 2, Cooling, Sensible, 9228.15, 0.69952, 0.69952, YELLOWKNIFE AP ANN CLG .4% CONDNS DB=>MWB, 7/21 05:00:00
 System Sizing Information, SYS_3_PSZ ALL_ST=SALES AREA_FL=BUILDING STORY 1_SCH=C 2, Heating, Sensible, 40138.93, 0.40705, 0.40705, YELLOWKNIFE AP ANN HTG 99.6% CONDNS DB, 1/21 09:00:00
! <Component Sizing Information>, Component Type, Component Name, Input Field Description, Value
 Component Sizing Information, ZoneHVAC:EnergyRecoveryVentilator, ALL_ST=SALES AREA_FL=BUILDING STORY 1_SCH=C ERV DOAS, Design Size Supply Air Flow Rate [m3/s], 1.83175
 Component Sizing Information, Fan:OnOff, ALL_ST=SALES AREA_FL=BUILDING STORY 1_SCH=C ERV SUP FAN, Design Size Maximum Flow Rate [m3/s], 1.83175
 Component Sizing Information, Fan:OnOff, ALL_ST=SALES AREA_FL=BUILDING STORY 1_SCH=C ERV EXH FAN, Design Size Maximum Flow Rate [m3/s], 1.83175
 Component Sizing Information, HeatExchanger:AirToAir:SensibleAndLatent, ALL_ST=SALES AREA_FL=BUILDING STORY 1_SCH=C ERV HX, Design Size Nominal Supply Air Flow Rate [m3/s], 1.83175
 Component Sizing Information, ZoneHVAC:EnergyRecoveryVentilator, ALL_ST=SALES AREA_FL=BUILDING STORY 1_SCH=C ERV DOAS, Design Size Exhaust Air Flow Rate [m3/s], 1.83175
 Component Sizing Information, ZoneHVAC:Baseboard:Convective:Water, ZONE HVAC BASEBOARD CONVECTIVE WATER 1, Design Size Maximum Water Flow Rate [m3/s], 6.51770E-004
 Component Sizing Information, ZoneHVAC:Baseboard:Convective:Water, ZONE HVAC BASEBOARD CONVECTIVE WATER 1, Design Size U-Factor Times Area Value [W/K], 1337.90549
 Component Sizing Information, AirTerminal:SingleDuct:VAV:HeatAndCool:NoReheat, ALL_ST=SALES AREA_FL=BUILDING STORY 1_SCH=C VAV TERMINAL, Design Size Maximum Air Flow Rate [m3/s], 2.25158
 Component Sizing Information, AirTerminal:SingleDuct:VAV:HeatAndCool:NoReheat, ALL_ST=SALES AREA_FL=BUILDING STORY 1_SCH=C VAV TERMINAL, Design Size Constant Minimum Air Flow Fraction, 0.53057
 Component Sizing Information, AirTerminal:SingleDuct:VAV:HeatAndCool:NoReheat, ALL_ST=SALES AREA_FL=BUILDING STORY 1_SCH=C VAV TERMINAL, User-Specified Constant Minimum Air Flow Fraction, 5.00000E-002
 Component Sizing Information, AirTerminal:SingleDuct:VAV:HeatAndCool:NoReheat, ALL_ST=SALES AREA_FL=BUILDING STORY 1_SCH=C VAV TERMINAL, Design Size Minimum Air Flow Rate [m3/s], 0.11258
 Component Sizing Information, ZoneHVAC:EnergyRecoveryVentilator, ALL_ST=SALES AREA_FL=BUILDING STORY 1_SCH=C 1 ERV DOAS, Design Size Supply Air Flow Rate [m3/s], 0.20353
 Component Sizing Information, Fan:OnOff, ALL_ST=SALES AREA_FL=BUILDING STORY 1_SCH=C 1 ERV SUP FAN, Design Size Maximum Flow Rate [m3/s], 0.20353
 Component Sizing Information, Fan:OnOff, ALL_ST=SALES AREA_FL=BUILDING STORY 1_SCH=C 1 ERV EXH FAN, Design Size Maximum Flow Rate [m3/s], 0.20353
 Component Sizing Information, HeatExchanger:AirToAir:SensibleAndLatent, ALL_ST=SALES AREA_FL=BUILDING STORY 1_SCH=C 1 ERV HX, Design Size Nominal Supply Air Flow Rate [m3/s], 0.20353
 Component Sizing Information, ZoneHVAC:EnergyRecoveryVentilator, ALL_ST=SALES AREA_FL=BUILDING STORY 1_SCH=C 1 ERV DOAS, Design Size Exhaust Air Flow Rate [m3/s], 0.20353
 Component Sizing Information, ZoneHVAC:Baseboard:Convective:Water, ZONE HVAC BASEBOARD CONVECTIVE WATER 2, Design Size Maximum Water Flow Rate [m3/s], 1.01909E-004
 Component Sizing Information, ZoneHVAC:Baseboard:Convective:Water, ZONE HVAC BASEBOARD CONVECTIVE WATER 2, Design Size U-Factor Times Area Value [W/K], 207.93861
 Component Sizing Information, AirTerminal:SingleDuct:VAV:HeatAndCool:NoReheat, ALL_ST=SALES AREA_FL=BUILDING STORY 1_SCH=C 1 VAV TERMINAL, Design Size Maximum Air Flow Rate [m3/s], 0.61532
 Component Sizing Information, AirTerminal:SingleDuct:VAV:HeatAndCool:NoReheat, ALL_ST=SALES AREA_FL=BUILDING STORY 1_SCH=C 1 VAV TERMINAL, Design Size Constant Minimum Air Flow Fraction, 0.21572
 Component Sizing Information, AirTerminal:SingleDuct:VAV:HeatAndCool:NoReheat, ALL_ST=SALES AREA_FL=BUILDING STORY 1_SCH=C 1 VAV TERMINAL, User-Specified Constant Minimum Air Flow Fraction, 5.00000E-002
 Component Sizing Information, AirTerminal:SingleDuct:VAV:HeatAndCool:NoReheat, ALL_ST=SALES AREA_FL=BUILDING STORY 1_SCH=C 1 VAV TERMINAL, Design Size Minimum Air Flow Rate [m3/s], 3.07660E-002
 Component Sizing Information, ZoneHVAC:EnergyRecoveryVentilator, ALL_ST=SALES AREA_FL=BUILDING STORY 1_SCH=C 2 ERV DOAS, Design Size Supply Air Flow Rate [m3/s], 0.40705
 Component Sizing Information, Fan:OnOff, ALL_ST=SALES AREA_FL=BUILDING STORY 1_SCH=C 2 ERV SUP FAN, Design Size Maximum Flow Rate [m3/s], 0.40705
 Component Sizing Information, Fan:OnOff, ALL_ST=SALES AREA_FL=BUILDING STORY 1_SCH=C 2 ERV EXH FAN, Design Size Maximum Flow Rate [m3/s], 0.40705
 Component Sizing Information, HeatExchanger:AirToAir:SensibleAndLatent, ALL_ST=SALES AREA_FL=BUILDING STORY 1_SCH=C 2 ERV HX, Design Size Nominal Supply Air Flow Rate [m3/s], 0.40705
 Component Sizing Information, ZoneHVAC:EnergyRecoveryVentilator, ALL_ST=SALES AREA_FL=BUILDING STORY 1_SCH=C 2 ERV DOAS, Design Size Exhaust Air Flow Rate [m3/s], 0.40705
 Component Sizing Information, ZoneHVAC:Baseboard:Convective:Water, ZONE HVAC BASEBOARD CONVECTIVE WATER 3, Design Size Maximum Water Flow Rate [m3/s], 1.61002E-004
 Component Sizing Information, ZoneHVAC:Baseboard:Convective:Water, ZONE HVAC BASEBOARD CONVECTIVE WATER 3, Design Size U-Factor Times Area Value [W/K], 329.54871
 Component Sizing Information, AirTerminal:SingleDuct:VAV:HeatAndCool:NoReheat, ALL_ST=SALES AREA_FL=BUILDING STORY 1_SCH=C 2 VAV TERMINAL, Design Size Maximum Air Flow Rate [m3/s], 0.69952
 Component Sizing Information, AirTerminal:SingleDuct:VAV:HeatAndCool:NoReheat, ALL_ST=SALES AREA_FL=BUILDING STORY 1_SCH=C 2 VAV TERMINAL, Design Size Constant Minimum Air Flow Fraction, 0.37950
 Component Sizing Information, AirTerminal:SingleDuct:VAV:HeatAndCool:NoReheat, ALL_ST=SALES AREA_FL=BUILDING STORY 1_SCH=C 2 VAV TERMINAL, User-Specified Constant Minimum Air Flow Fraction, 5.00000E-002
 Component Sizing Information, AirTerminal:SingleDuct:VAV:HeatAndCool:NoReheat, ALL_ST=SALES AREA_FL=BUILDING STORY 1_SCH=C 2 VAV TERMINAL, Design Size Minimum Air Flow Rate [m3/s], 3.49760E-002
 Component Sizing Information, AirLoopHVAC, SYS_3_PSZ ALL_ST=SALES AREA_FL=BUILDING STORY 1_SCH=C, Sum of Air Terminal Maximum Heating Flow Rates [m3/s], 0.11258
 Component Sizing Information, AirLoopHVAC, SYS_3_PSZ ALL_ST=SALES AREA_FL=BUILDING STORY 1_SCH=C, Sum of Air Terminal Minimum Heating Flow Rates [m3/s], 0.11258
 Component Sizing Information, AirLoopHVAC, SYS_3_PSZ ALL_ST=SALES AREA_FL=BUILDING STORY 1_SCH=C, Sum of Air Terminal Maximum Flow Rates [m3/s], 2.25158
 Component Sizing Information, AirLoopHVAC, SYS_3_PSZ ALL_ST=SALES AREA_FL=BUILDING STORY 1_SCH=C, Adjusted Heating Design Air Flow Rate [m3/s], 1.83175
 Component Sizing Information, AirLoopHVAC, SYS_3_PSZ ALL_ST=SALES AREA_FL=BUILDING STORY 1_SCH=C, Adjusted Cooling Design Air Flow Rate [m3/s], 2.25158
 Component Sizing Information, AirLoopHVAC, SYS_3_PSZ ALL_ST=SALES AREA_FL=BUILDING STORY 1_SCH=C, Adjusted Main Design Air Flow Rate [m3/s], 2.25158
 Component Sizing Information, AirLoopHVAC, SYS_3_PSZ ALL_ST=SALES AREA_FL=BUILDING STORY 1_SCH=C, User Heating Air Flow Ratio [], 1.00000
 Component Sizing Information, AirLoopHVAC, SYS_3_PSZ ALL_ST=SALES AREA_FL=BUILDING STORY 1_SCH=C, Calculated Heating Air Flow Ratio [], 0.81354
 Component Sizing Information, AirLoopHVAC, SYS_3_PSZ ALL_ST=SALES AREA_FL=BUILDING STORY 1_SCH=C 1, Sum of Air Terminal Maximum Heating Flow Rates [m3/s], 3.07660E-002
 Component Sizing Information, AirLoopHVAC, SYS_3_PSZ ALL_ST=SALES AREA_FL=BUILDING STORY 1_SCH=C 1, Sum of Air Terminal Minimum Heating Flow Rates [m3/s], 3.07660E-002
 Component Sizing Information, AirLoopHVAC, SYS_3_PSZ ALL_ST=SALES AREA_FL=BUILDING STORY 1_SCH=C 1, Sum of Air Terminal Maximum Flow Rates [m3/s], 0.61532
 Component Sizing Information, AirLoopHVAC, SYS_3_PSZ ALL_ST=SALES AREA_FL=BUILDING STORY 1_SCH=C 1, Adjusted Heating Design Air Flow Rate [m3/s], 0.25877
 Component Sizing Information, AirLoopHVAC, SYS_3_PSZ ALL_ST=SALES AREA_FL=BUILDING STORY 1_SCH=C 1, Adjusted Cooling Design Air Flow Rate [m3/s], 0.61532
 Component Sizing Information, AirLoopHVAC, SYS_3_PSZ ALL_ST=SALES AREA_FL=BUILDING STORY 1_SCH=C 1, Adjusted Main Design Air Flow Rate [m3/s], 0.61532
 Component Sizing Information, AirLoopHVAC, SYS_3_PSZ ALL_ST=SALES AREA_FL=BUILDING STORY 1_SCH=C 1, User Heating Air Flow Ratio [], 1.00000
 Component Sizing Information, AirLoopHVAC, SYS_3_PSZ ALL_ST=SALES AREA_FL=BUILDING STORY 1_SCH=C 1, Calculated Heating Air Flow Ratio [], 0.42055
 Component Sizing Information, AirLoopHVAC, SYS_3_PSZ ALL_ST=SALES AREA_FL=BUILDING STORY 1_SCH=C 2, Sum of Air Terminal Maximum Heating Flow Rates [m3/s], 3.49760E-002
 Component Sizing Information, AirLoopHVAC, SYS_3_PSZ ALL_ST=SALES AREA_FL=BUILDING STORY 1_SCH=C 2, Sum of Air Terminal Minimum Heating Flow Rates [m3/s], 3.49760E-002
 Component Sizing Information, AirLoopHVAC, SYS_3_PSZ ALL_ST=SALES AREA_FL=BUILDING STORY 1_SCH=C 2, Sum of Air Terminal Maximum Flow Rates [m3/s], 0.69952
 Component Sizing Information, AirLoopHVAC, SYS_3_PSZ ALL_ST=SALES AREA_FL=BUILDING STORY 1_SCH=C 2, Adjusted Heating Design Air Flow Rate [m3/s], 0.40705
 Component Sizing Information, AirLoopHVAC, SYS_3_PSZ ALL_ST=SALES AREA_FL=BUILDING STORY 1_SCH=C 2, Adjusted Cooling Design Air Flow Rate [m3/s], 0.69952
 Component Sizing Information, AirLoopHVAC, SYS_3_PSZ ALL_ST=SALES AREA_FL=BUILDING STORY 1_SCH=C 2, Adjusted Main Design Air Flow Rate [m3/s], 0.69952
 Component Sizing Information, AirLoopHVAC, SYS_3_PSZ ALL_ST=SALES AREA_FL=BUILDING STORY 1_SCH=C 2, User Heating Air Flow Ratio [], 1.00000
 Component Sizing Information, AirLoopHVAC, SYS_3_PSZ ALL_ST=SALES AREA_FL=BUILDING STORY 1_SCH=C 2, Calculated Heating Air Flow Ratio [], 0.58191
 Component Sizing Information, AirLoopHVAC, SYS_3_PSZ ALL_ST=SALES AREA_FL=BUILDING STORY 1_SCH=C, Design Supply Air Flow Rate [m3/s], 2.25158
 Component Sizing Information, AirLoopHVAC, SYS_3_PSZ ALL_ST=SALES AREA_FL=BUILDING STORY 1_SCH=C 1, Design Supply Air Flow Rate [m3/s], 0.61532
 Component Sizing Information, AirLoopHVAC, SYS_3_PSZ ALL_ST=SALES AREA_FL=BUILDING STORY 1_SCH=C 2, Design Supply Air Flow Rate [m3/s], 0.69952
!<Controller:MechanicalVentilation>,Name,Availability Schedule Name,Demand Controlled Ventilation {Yes/No},System Outdoor Air Method,Zone Maximum Outdoor Air Fraction,Number of Zones,Zone Name,DSOA Name,DSZAD Name
 Controller:MechanicalVentilation,CONTROLLER MECHANICAL VENTILATION 1,SYS_3_PSZ ALL_ST=SALES AREA_FL=BUILDING STORY 1_SCH=C OCC SCH,No,ZoneSum,1.00,1,ALL_ST=SALES AREA_FL=BUILDING STORY 1_SCH=C,SPACE FUNCTION SALES AREA VENTILATION,ALL_ST=SALES AREA_FL=BUILDING STORY 1_SCH=C DESIGN SPEC ZONE AIR DIST
 Controller:MechanicalVentilation,CONTROLLER MECHANICAL VENTILATION 2,SYS_3_PSZ ALL_ST=SALES AREA_FL=BUILDING STORY 1_SCH=C 1 OCC SCH,No,ZoneSum,1.00,1,ALL_ST=SALES AREA_FL=BUILDING STORY 1_SCH=C 1,SPACE FUNCTION SALES AREA VENTILATION,ALL_ST=SALES AREA_FL=BUILDING STORY 1_SCH=C 1 DESIGN SPEC ZONE AIR DIST
 Controller:MechanicalVentilation,CONTROLLER MECHANICAL VENTILATION 3,SYS_3_PSZ ALL_ST=SALES AREA_FL=BUILDING STORY 1_SCH=C 2 OCC SCH,No,ZoneSum,1.00,1,ALL_ST=SALES AREA_FL=BUILDING STORY 1_SCH=C 2,SPACE FUNCTION SALES AREA VENTILATION,ALL_ST=SALES AREA_FL=BUILDING STORY 1_SCH=C 2 DESIGN SPEC ZONE AIR DIST
 Component Sizing Information, HeatExchanger:AirToAir:SensibleAndLatent, SYS_3_PSZ ALL_ST=SALES AREA_FL=BUILDING STORY 1_SCH=C ERV, Design Size Nominal Supply Air Flow Rate [m3/s], 1.83175
 Component Sizing Information, Coil:Cooling:DX:SingleSpeed, COIL COOLING DX SINGLE SPEED 1 319KBTU/HR 8.39EER, Design Size Rated Air Flow Rate [m3/s], 2.25158
 Component Sizing Information, Coil:Cooling:DX:SingleSpeed, COIL COOLING DX SINGLE SPEED 1 319KBTU/HR 8.39EER, Design Size Gross Rated Total Cooling Capacity [W], 37271.60721
 Component Sizing Information, Coil:Cooling:DX:SingleSpeed, COIL COOLING DX SINGLE SPEED 1 319KBTU/HR 8.39EER, Design Size Gross Rated Sensible Heat Ratio, 0.80066
! <DX Cooling Coil Standard Rating Information>, Component Type, Component Name, Standard Rating (Net) Cooling Capacity {W}, Standard Rated Net COP {W/W}, EER {Btu/W-h}, SEER {Btu/W-h}, IEER {Btu/W-h}
 DX Cooling Coil Standard Rating Information, Coil:Cooling:DX:SingleSpeed, COIL COOLING DX SINGLE SPEED 1 319KBTU/HR 8.39EER, 35521.4, 2.54, 8.67, 9.16, 8.73
 Component Sizing Information, Coil:Heating:Electric, COIL HEATING ELECTRIC 1, Design Size Nominal Capacity [W], 191622.50418
 Component Sizing Information, Fan:VariableVolume, FAN VARIABLE VOLUME 3, Design Size Maximum Flow Rate [m3/s], 2.25158
 Component Sizing Information, HeatExchanger:AirToAir:SensibleAndLatent, SYS_3_PSZ ALL_ST=SALES AREA_FL=BUILDING STORY 1_SCH=C 1 ERV, Design Size Nominal Supply Air Flow Rate [m3/s], 0.20353
 Component Sizing Information, Coil:Cooling:DX:SingleSpeed, COIL COOLING DX SINGLE SPEED 2 67KBTU/HR 9.44EER, Design Size Rated Air Flow Rate [m3/s], 0.61532
 Component Sizing Information, Coil:Cooling:DX:SingleSpeed, COIL COOLING DX SINGLE SPEED 2 67KBTU/HR 9.44EER, Design Size Gross Rated Total Cooling Capacity [W], 10185.74022
 Component Sizing Information, Coil:Cooling:DX:SingleSpeed, COIL COOLING DX SINGLE SPEED 2 67KBTU/HR 9.44EER, Design Size Gross Rated Sensible Heat Ratio, 0.80066
 DX Cooling Coil Standard Rating Information, Coil:Cooling:DX:SingleSpeed, COIL COOLING DX SINGLE SPEED 2 67KBTU/HR 9.44EER, 9707.4, 2.68, 9.15, 9.66, 9.16
 Component Sizing Information, Coil:Heating:Electric, COIL HEATING ELECTRIC 2, Design Size Nominal Capacity [W], 30681.20309
 Component Sizing Information, Fan:VariableVolume, FAN VARIABLE VOLUME 1, Design Size Maximum Flow Rate [m3/s], 0.61532
 Component Sizing Information, HeatExchanger:AirToAir:SensibleAndLatent, SYS_3_PSZ ALL_ST=SALES AREA_FL=BUILDING STORY 1_SCH=C 2 ERV, Design Size Nominal Supply Air Flow Rate [m3/s], 0.40705
 Component Sizing Information, Coil:Cooling:DX:SingleSpeed, COIL COOLING DX SINGLE SPEED 3 87KBTU/HR 9.44EER, Design Size Rated Air Flow Rate [m3/s], 0.69952
 Component Sizing Information, Coil:Cooling:DX:SingleSpeed, COIL COOLING DX SINGLE SPEED 3 87KBTU/HR 9.44EER, Design Size Gross Rated Total Cooling Capacity [W], 11579.54257
 Component Sizing Information, Coil:Cooling:DX:SingleSpeed, COIL COOLING DX SINGLE SPEED 3 87KBTU/HR 9.44EER, Design Size Gross Rated Sensible Heat Ratio, 0.80066
 DX Cooling Coil Standard Rating Information, Coil:Cooling:DX:SingleSpeed, COIL COOLING DX SINGLE SPEED 3 87KBTU/HR 9.44EER, 11035.8, 2.69, 9.19, 9.70, 9.20
 Component Sizing Information, Coil:Heating:Electric, COIL HEATING ELECTRIC 3, Design Size Nominal Capacity [W], 47806.54812
 Component Sizing Information, Fan:VariableVolume, FAN VARIABLE VOLUME 2, Design Size Maximum Flow Rate [m3/s], 0.69952
 Component Sizing Information, Coil:WaterHeating:AirToWaterHeatPump:Pumped, COIL WATER HEATING AIR TO WATER HEAT PUMP 1, Design Size Rated Evaporator Air Flow Rate [m3/s], 0.13319
 Component Sizing Information, Coil:WaterHeating:AirToWaterHeatPump:Pumped, COIL WATER HEATING AIR TO WATER HEAT PUMP 1, Design Size Rated Condenser Water Flow Rate [m3/s], 1.18690E-004
 Component Sizing Information, Fan:OnOff, FAN ON OFF 1, Design Size Maximum Flow Rate [m3/s], 0.13319
Heat Pump Water Heater Information,WaterHeater:HeatPump:PumpedCondenser,13GAL ELECTRICITY WATER HEATER - 9KBTU/HR 1.0 THERM EFF ASHPWH,5.0625E-002,2165.2,3.040,2.6246,1701
 Component Sizing Information, WaterHeater:HeatPump:PumpedCondenser, 13GAL ELECTRICITY WATER HEATER - 9KBTU/HR 1.0 THERM EFF ASHPWH, Condenser water flow rate [m3/s], 1.18690E-004
 Component Sizing Information, WaterHeater:HeatPump:PumpedCondenser, 13GAL ELECTRICITY WATER HEATER - 9KBTU/HR 1.0 THERM EFF ASHPWH, Evaporator air flow rate [m3/s], 0.13319
 Component Sizing Information, PlantLoop, HOT WATER LOOP, Maximum Loop Flow Rate [m3/s], 9.14680E-004
 Component Sizing Information, PlantLoop, HOT WATER LOOP, Plant Loop Volume [m3], 0.10976
 Component Sizing Information, Pump:VariableSpeed, PUMP VARIABLE SPEED 1, Design Flow Rate [m3/s], 9.14680E-004
 Component Sizing Information, Pump:VariableSpeed, PUMP VARIABLE SPEED 1, Design Power Consumption [W], 275.28222
 Component Sizing Information, Boiler:HotWater, PRIMARY BOILER 320KBTU/HR 0.834 THERMAL EFF, Design Size Nominal Capacity [W], 61477.81471
 Component Sizing Information, Boiler:HotWater, PRIMARY BOILER 320KBTU/HR 0.834 THERMAL EFF, User-Specified Nominal Capacity [W], 93694.15504
 Component Sizing Information, Boiler:HotWater, PRIMARY BOILER 320KBTU/HR 0.834 THERMAL EFF, Design Size Design Water Flow Rate [m3/s], 9.14680E-004
 Component Sizing Information, Boiler:HotWater, SECONDARY BOILER 0KBTU/HR 0.847 AFUE, Design Size Nominal Capacity [W], 61477.81471
 Component Sizing Information, Boiler:HotWater, SECONDARY BOILER 0KBTU/HR 0.847 AFUE, User-Specified Nominal Capacity [W], 1.00000E-003
 Component Sizing Information, Boiler:HotWater, SECONDARY BOILER 0KBTU/HR 0.847 AFUE, Design Size Design Water Flow Rate [m3/s], 9.14680E-004
 Component Sizing Information, PlantLoop, MAIN SERVICE WATER LOOP, Maximum Loop Flow Rate [m3/s], 1.48029E-005
 Component Sizing Information, PlantLoop, MAIN SERVICE WATER LOOP, Plant Loop Volume [m3], 1.77635E-003
 Component Sizing Information, Pump:ConstantSpeed, SERVICE WATER LOOP PUMP, Design Flow Rate [m3/s], 1.48029E-005
 Component Sizing Information, Pump:ConstantSpeed, SERVICE WATER LOOP PUMP, Design Power Consumption [W], 4.06574E-003
 Component Sizing Information, WaterHeater:Mixed, 13GAL ELECTRICITY WATER HEATER - 9KBTU/HR 1.0 THERM EFF, Use Side Design Flow Rate [m3/s], 1.48029E-005
! <Environment>,Environment Name,Environment Type, Start Date, End Date, Start DayOfWeek, Duration {#days}, Source:Start DayOfWeek,  Use Daylight Saving, Use Holidays, Apply Weekend Holiday Rule,  Use Rain Values, Use Snow Values
! <Environment:Special Days>, Special Day Name, Special Day Type, Source, Start Date, Duration {#days}
! <Environment:Daylight Saving>, Daylight Saving Indicator, Source, Start Date, End Date
! <Environment:WarmupDays>, NumberofWarmupDays
Environment,RUN PERIOD 1,WeatherFileRunPeriod,01/01,12/31,Sunday,365,Use RunPeriod Specified Day,No,No,No,Yes,Yes
Environment:Daylight Saving,No,RunPeriod Object
Environment:WarmupDays,  6
! <Tabular Report>,Style,Unit Conversion
Tabular Report,HTML,None
! <Warmup Convergence Information>,Zone Name,Environment Type/Name,Average Warmup Temperature Difference {deltaC},Std Dev Warmup Temperature Difference {deltaC},Max Temperature Pass/Fail Convergence,Min Temperature Pass/Fail Convergence,Average Warmup Load Difference {W},Std Dev Warmup Load Difference {W},Heating Load Pass/Fail Convergence,Cooling Load Pass/Fail Convergence
 Warmup Convergence Information,ALL_ST=SALES AREA_FL=BUILDING STORY 1_SCH=C,RunPeriod: RUN PERIOD 1,6.1610933355E-002,0.1992893356,Pass,Pass,1.3510295566,9.3923684428,Pass,Pass
 Warmup Convergence Information,ALL_ST=SALES AREA_FL=BUILDING STORY 1_SCH=C 1,RunPeriod: RUN PERIOD 1,5.7537337776E-002,0.2365785526,Pass,Pass,5.1108689423E-002,9.5687776607E-002,Pass,Pass
 Warmup Convergence Information,ALL_ST=SALES AREA_FL=BUILDING STORY 1_SCH=C 2,RunPeriod: RUN PERIOD 1,5.6855327980E-002,0.2206742063,Pass,Pass,7.5613170436E-002,0.1300483599,Pass,Pass
! <Program Control Information:Threads/Parallel Sims>, Threading Supported,Maximum Number of Threads, Env Set Threads (OMP_NUM_THREADS), EP Env Set Threads (EP_OMP_NUM_THREADS), IDF Set Threads, Number of Threads Used (Interior Radiant Exchange), Number Nominal Surfaces, Number Parallel Sims
Program Control:Threads/Parallel Sims, No,1, N/A, N/A, N/A, N/A, N/A, N/A
End of Data
