Program Version,EnergyPlus, Version 8.9.0-497bb3e71c, YMD=2018.06.06 17:05
! This file shows details about the branches, nodes, and other
! elements of the flow connections.
! This file is intended for use in "debugging" potential problems
! that may also be detected by the program, but may be more easily
! identified by "eye".
! This file is also intended to support software which draws a
! schematic diagram of the HVAC system.
! ===============================================================
! #Nodes,<Number of Unique Nodes>
 #Nodes,559
! <Node>,<NodeNumber>,<Node Name>,<Node Fluid Type>,<# Times Node Referenced After Definition>
 Node,1,NODE 139,Air,3
 Node,2,NODE 138,Air,3
 Node,3,NODE 141,Air,3
 Node,4,NODE 140,Air,3
 Node,5,NODE 143,Air,3
 Node,6,NODE 142,Air,3
 Node,7,NODE 145,Air,3
 Node,8,NODE 144,Air,3
 Node,9,NODE 158,Air,3
 Node,10,NODE 150,Air,4
 Node,11,NODE 166,Air,4
 Node,12,NODE 178,Air,4
 Node,13,NODE 201,Air,3
 Node,14,NODE 200,Air,3
 Node,15,NODE 203,Air,3
 Node,16,NODE 202,Air,3
 Node,17,NODE 205,Air,3
 Node,18,NODE 204,Air,3
 Node,19,NODE 207,Air,3
 Node,20,NODE 206,Air,3
 Node,21,NODE 69,Air,3
 Node,22,NODE 68,Air,3
 Node,23,NODE 71,Air,3
 Node,24,NODE 70,Air,3
 Node,25,NODE 73,Air,3
 Node,26,NODE 72,Air,3
 Node,27,NODE 75,Air,3
 Node,28,NODE 74,Air,3
 Node,29,NODE 77,Air,3
 Node,30,NODE 76,Air,3
 Node,31,NODE 79,Air,3
 Node,32,NODE 78,Air,3
 Node,33,NODE 81,Air,3
 Node,34,NODE 80,Air,3
 Node,35,NODE 83,Air,3
 Node,36,NODE 82,Air,3
 Node,37,NODE 85,Air,3
 Node,38,NODE 84,Air,3
 Node,39,NODE 87,Air,3
 Node,40,NODE 86,Air,3
 Node,41,NODE 89,Air,3
 Node,42,NODE 88,Air,3
 Node,43,NODE 91,Air,3
 Node,44,NODE 90,Air,3
 Node,45,NODE 93,Air,3
 Node,46,NODE 92,Air,3
 Node,47,NODE 95,Air,3
 Node,48,NODE 94,Air,3
 Node,49,NODE 97,Air,3
 Node,50,NODE 96,Air,3
 Node,51,NODE 99,Air,3
 Node,52,NODE 98,Air,3
 Node,53,NODE 101,Air,3
 Node,54,NODE 100,Air,3
 Node,55,NODE 103,Air,3
 Node,56,NODE 102,Air,3
 Node,57,NODE 105,Air,3
 Node,58,NODE 104,Air,3
 Node,59,NODE 107,Air,3
 Node,60,NODE 106,Air,3
 Node,61,NODE 109,Air,3
 Node,62,NODE 108,Air,3
 Node,63,NODE 111,Air,3
 Node,64,NODE 110,Air,3
 Node,65,NODE 113,Air,3
 Node,66,NODE 112,Air,3
 Node,67,NODE 115,Air,3
 Node,68,NODE 114,Air,3
 Node,69,NODE 117,Air,3
 Node,70,NODE 116,Air,3
 Node,71,NODE 119,Air,3
 Node,72,NODE 118,Air,3
 Node,73,NODE 121,Air,3
 Node,74,NODE 120,Air,3
 Node,75,NODE 123,Air,3
 Node,76,NODE 122,Air,3
 Node,77,NODE 125,Air,3
 Node,78,NODE 124,Air,3
 Node,79,NODE 127,Air,3
 Node,80,NODE 126,Air,3
 Node,81,NODE 129,Air,3
 Node,82,NODE 128,Air,3
 Node,83,NODE 131,Air,3
 Node,84,NODE 130,Air,3
 Node,85,NODE 133,Air,3
 Node,86,NODE 132,Air,3
 Node,87,NODE 135,Air,3
 Node,88,NODE 134,Air,3
 Node,89,NODE 137,Air,3
 Node,90,NODE 136,Air,3
 Node,91,NODE 199,Air,3
 Node,92,NODE 198,Air,3
 Node,93,NODE 190,Air,4
 Node,94,NODE 209,Air,3
 Node,95,NODE 208,Air,3
 Node,96,NODE 211,Air,3
 Node,97,NODE 210,Air,3
 Node,98,NODE 213,Air,3
 Node,99,NODE 212,Air,3
 Node,100,NODE 215,Air,3
 Node,101,NODE 214,Air,3
 Node,102,NODE 160,Air,3
 Node,103,NODE 147,Air,12
 Node,104,NODE 148,Air,3
 Node,105,NODE 163,Air,12
 Node,106,NODE 164,Air,3
 Node,107,NODE 175,Air,12
 Node,108,NODE 176,Air,3
 Node,109,NODE 187,Air,12
 Node,110,NODE 188,Air,3
 Node,111,NODE 146,Air,3
 Node,112,NODE 156,Air,6
 Node,113,NODE 155,Air,6
 Node,114,NODE 154,Air,5
 Node,115,NODE 153,Air,9
 Node,116,NODE 162,Air,3
 Node,117,NODE 172,Air,6
 Node,118,NODE 171,Air,6
 Node,119,NODE 170,Air,5
 Node,120,NODE 169,Air,9
 Node,121,NODE 174,Air,3
 Node,122,NODE 184,Air,6
 Node,123,NODE 183,Air,6
 Node,124,NODE 182,Air,5
 Node,125,NODE 181,Air,9
 Node,126,NODE 186,Air,3
 Node,127,NODE 196,Air,6
 Node,128,NODE 195,Air,6
 Node,129,NODE 194,Air,5
 Node,130,NODE 193,Air,9
 Node,131,NODE 300,Water,2
 Node,132,NODE 306,Water,1
 Node,133,NODE 302,Water,1
 Node,134,NODE 307,Water,1
 Node,135,NODE 308,Water,1
 Node,136,NODE 309,Water,1
 Node,137,NODE 311,Water,1
 Node,138,NODE 301,Water,4
 Node,139,NODE 303,Water,2
 Node,140,NODE 312,Water,1
 Node,141,NODE 305,Water,1
 Node,142,NODE 310,Water,1
 Node,143,NODE 314,Water,1
 Node,144,NODE 315,Water,1
 Node,145,LAUNDRY SERVICE WATER LOOP DEMAND BYPASS PIPE INLET NODE,Water,1
 Node,146,LAUNDRY SERVICE WATER LOOP DEMAND BYPASS PIPE OUTLET NODE,Water,1
 Node,147,NODE 313,Water,1
 Node,148,NODE 304,Water,2
 Node,149,NODE 216,Water,2
 Node,150,NODE 222,Water,1
 Node,151,NODE 218,Water,1
 Node,152,NODE 223,Water,1
 Node,153,NODE 224,Water,1
 Node,154,NODE 225,Water,1
 Node,155,NODE 227,Water,1
 Node,156,NODE 217,Water,4
 Node,157,NODE 219,Water,2
 Node,158,NODE 228,Water,1
 Node,159,NODE 221,Water,1
 Node,160,NODE 226,Water,1
 Node,161,NODE 230,Water,1
 Node,162,NODE 231,Water,1
 Node,163,NODE 232,Water,1
 Node,164,NODE 233,Water,1
 Node,165,NODE 234,Water,1
 Node,166,NODE 235,Water,1
 Node,167,NODE 236,Water,1
 Node,168,NODE 237,Water,1
 Node,169,NODE 238,Water,1
 Node,170,NODE 239,Water,1
 Node,171,NODE 240,Water,1
 Node,172,NODE 241,Water,1
 Node,173,NODE 242,Water,1
 Node,174,NODE 243,Water,1
 Node,175,NODE 244,Water,1
 Node,176,NODE 245,Water,1
 Node,177,NODE 246,Water,1
 Node,178,NODE 247,Water,1
 Node,179,NODE 248,Water,1
 Node,180,NODE 249,Water,1
 Node,181,NODE 250,Water,1
 Node,182,NODE 251,Water,1
 Node,183,NODE 252,Water,1
 Node,184,NODE 253,Water,1
 Node,185,NODE 254,Water,1
 Node,186,NODE 255,Water,1
 Node,187,NODE 256,Water,1
 Node,188,NODE 257,Water,1
 Node,189,NODE 258,Water,1
 Node,190,NODE 259,Water,1
 Node,191,NODE 260,Water,1
 Node,192,NODE 261,Water,1
 Node,193,NODE 262,Water,1
 Node,194,NODE 263,Water,1
 Node,195,NODE 264,Water,1
 Node,196,NODE 265,Water,1
 Node,197,NODE 266,Water,1
 Node,198,NODE 267,Water,1
 Node,199,NODE 268,Water,1
 Node,200,NODE 269,Water,1
 Node,201,NODE 270,Water,1
 Node,202,NODE 271,Water,1
 Node,203,NODE 272,Water,1
 Node,204,NODE 273,Water,1
 Node,205,NODE 274,Water,1
 Node,206,NODE 275,Water,1
 Node,207,NODE 276,Water,1
 Node,208,NODE 277,Water,1
 Node,209,NODE 278,Water,1
 Node,210,NODE 279,Water,1
 Node,211,NODE 280,Water,1
 Node,212,NODE 281,Water,1
 Node,213,NODE 282,Water,1
 Node,214,NODE 283,Water,1
 Node,215,NODE 284,Water,1
 Node,216,NODE 285,Water,1
 Node,217,NODE 286,Water,1
 Node,218,NODE 287,Water,1
 Node,219,NODE 288,Water,1
 Node,220,NODE 289,Water,1
 Node,221,NODE 290,Water,1
 Node,222,NODE 291,Water,1
 Node,223,NODE 292,Water,1
 Node,224,NODE 293,Water,1
 Node,225,NODE 294,Water,1
 Node,226,NODE 295,Water,1
 Node,227,NODE 296,Water,1
 Node,228,NODE 297,Water,1
 Node,229,NODE 298,Water,1
 Node,230,NODE 299,Water,1
 Node,231,MAIN SERVICE WATER LOOP DEMAND BYPASS PIPE INLET NODE,Water,1
 Node,232,MAIN SERVICE WATER LOOP DEMAND BYPASS PIPE OUTLET NODE,Water,1
 Node,233,NODE 229,Water,1
 Node,234,NODE 220,Water,2
 Node,235,NODE 46,Air,0
 Node,236,CORRIDORFLR1 ZN RETURN AIR NODE,Air,0
 Node,237,NODE 1,Air,0
 Node,238,CORRIDORFLR2 ZN RETURN AIR NODE,Air,0
 Node,239,NODE 6,Air,0
 Node,240,CORRIDORFLR3 ZN RETURN AIR NODE,Air,0
 Node,241,NODE 53,Air,0
 Node,242,CORRIDORFLR4 ZN RETURN AIR NODE,Air,0
 Node,243,NODE 63,Air,0
 Node,244,NODE 159,Air,1
 Node,245,NODE 20,Air,1
 Node,246,NODE 157,Air,1
 Node,247,NODE 13,Air,1
 Node,248,NODE 173,Air,1
 Node,249,NODE 18,Air,1
 Node,250,NODE 185,Air,1
 Node,251,NODE 48,Air,0
 Node,252,FRONTSTAIRSFLR1 ZN RETURN AIR NODE,Air,0
 Node,253,NODE 36,Air,0
 Node,254,FRONTSTAIRSFLR2 ZN RETURN AIR NODE,Air,0
 Node,255,NODE 64,Air,0
 Node,256,FRONTSTAIRSFLR3 ZN RETURN AIR NODE,Air,0
 Node,257,NODE 4,Air,0
 Node,258,FRONTSTAIRSFLR4 ZN RETURN AIR NODE,Air,0
 Node,259,NODE 47,Air,0
 Node,260,GUESTROOM101 ZN RETURN AIR NODE,Air,0
 Node,261,NODE 59,Air,0
 Node,262,GUESTROOM102 ZN RETURN AIR NODE,Air,0
 Node,263,NODE 31,Air,0
 Node,264,GUESTROOM103 ZN RETURN AIR NODE,Air,0
 Node,265,NODE 29,Air,0
 Node,266,GUESTROOM104 ZN RETURN AIR NODE,Air,0
 Node,267,NODE 21,Air,0
 Node,268,GUESTROOM105 ZN RETURN AIR NODE,Air,0
 Node,269,NODE 57,Air,0
 Node,270,GUESTROOM201 ZN RETURN AIR NODE,Air,0
 Node,271,NODE 25,Air,0
 Node,272,GUESTROOM202_205 ZN RETURN AIR NODE,Air,0
 Node,273,NODE 65,Air,0
 Node,274,GUESTROOM206_208 ZN RETURN AIR NODE,Air,0
 Node,275,NODE 27,Air,0
 Node,276,GUESTROOM209_212 ZN RETURN AIR NODE,Air,0
 Node,277,NODE 2,Air,0
 Node,278,GUESTROOM213 ZN RETURN AIR NODE,Air,0
 Node,279,NODE 10,Air,0
 Node,280,GUESTROOM214 ZN RETURN AIR NODE,Air,0
 Node,281,NODE 61,Air,0
 Node,282,GUESTROOM215_218 ZN RETURN AIR NODE,Air,0
 Node,283,NODE 49,Air,0
 Node,284,GUESTROOM219 ZN RETURN AIR NODE,Air,0
 Node,285,NODE 9,Air,0
 Node,286,GUESTROOM220_223 ZN RETURN AIR NODE,Air,0
 Node,287,NODE 11,Air,0
 Node,288,GUESTROOM224 ZN RETURN AIR NODE,Air,0
 Node,289,NODE 7,Air,0
 Node,290,GUESTROOM301 ZN RETURN AIR NODE,Air,0
 Node,291,NODE 15,Air,0
 Node,292,GUESTROOM302_305 ZN RETURN AIR NODE,Air,0
 Node,293,NODE 42,Air,0
 Node,294,GUESTROOM306_308 ZN RETURN AIR NODE,Air,0
 Node,295,NODE 38,Air,0
 Node,296,GUESTROOM309_312 ZN RETURN AIR NODE,Air,0
 Node,297,NODE 8,Air,0
 Node,298,GUESTROOM313 ZN RETURN AIR NODE,Air,0
 Node,299,NODE 39,Air,0
 Node,300,GUESTROOM314 ZN RETURN AIR NODE,Air,0
 Node,301,NODE 41,Air,0
 Node,302,GUESTROOM315_318 ZN RETURN AIR NODE,Air,0
 Node,303,NODE 51,Air,0
 Node,304,GUESTROOM319 ZN RETURN AIR NODE,Air,0
 Node,305,NODE 67,Air,0
 Node,306,GUESTROOM320_323 ZN RETURN AIR NODE,Air,0
 Node,307,NODE 43,Air,0
 Node,308,GUESTROOM324 ZN RETURN AIR NODE,Air,0
 Node,309,NODE 28,Air,0
 Node,310,GUESTROOM401 ZN RETURN AIR NODE,Air,0
 Node,311,NODE 16,Air,0
 Node,312,GUESTROOM402_405 ZN RETURN AIR NODE,Air,0
 Node,313,NODE 52,Air,0
 Node,314,GUESTROOM406_408 ZN RETURN AIR NODE,Air,0
 Node,315,NODE 55,Air,0
 Node,316,GUESTROOM409_412 ZN RETURN AIR NODE,Air,0
 Node,317,NODE 58,Air,0
 Node,318,GUESTROOM413 ZN RETURN AIR NODE,Air,0
 Node,319,NODE 33,Air,0
 Node,320,GUESTROOM414 ZN RETURN AIR NODE,Air,0
 Node,321,NODE 30,Air,0
 Node,322,GUESTROOM415_418 ZN RETURN AIR NODE,Air,0
 Node,323,NODE 35,Air,0
 Node,324,GUESTROOM419 ZN RETURN AIR NODE,Air,0
 Node,325,NODE 32,Air,0
 Node,326,GUESTROOM420_423 ZN RETURN AIR NODE,Air,0
 Node,327,NODE 19,Air,0
 Node,328,GUESTROOM424 ZN RETURN AIR NODE,Air,0
 Node,329,NODE 22,Air,0
 Node,330,MECHANICALROOMFLR1 ZN RETURN AIR NODE,Air,0
 Node,331,NODE 44,Air,1
 Node,332,NODE 197,Air,1
 Node,333,NODE 60,Air,0
 Node,334,REARSTAIRSFLR1 ZN RETURN AIR NODE,Air,0
 Node,335,NODE 54,Air,0
 Node,336,REARSTAIRSFLR2 ZN RETURN AIR NODE,Air,0
 Node,337,NODE 37,Air,0
 Node,338,REARSTAIRSFLR3 ZN RETURN AIR NODE,Air,0
 Node,339,NODE 3,Air,0
 Node,340,REARSTAIRSFLR4 ZN RETURN AIR NODE,Air,0
 Node,341,NODE 45,Air,0
 Node,342,NODE 161,Air,1
 Node,343,NODE 149,Air,2
 Node,344,NODE 165,Air,2
 Node,345,NODE 177,Air,2
 Node,346,NODE 189,Air,2
 Node,347,CORRIDORFLR1 ZN PTAC OA NODE,Air,1
 Node,348,CORRIDORFLR2 ZN PTAC OA NODE,Air,1
 Node,349,CORRIDORFLR3 ZN PTAC OA NODE,Air,1
 Node,350,CORRIDORFLR4 ZN PTAC OA NODE,Air,1
 Node,351,GUESTROOM101 ZN PTAC OA NODE,Air,1
 Node,352,GUESTROOM102 ZN PTAC OA NODE,Air,1
 Node,353,GUESTROOM103 ZN PTAC OA NODE,Air,1
 Node,354,GUESTROOM104 ZN PTAC OA NODE,Air,1
 Node,355,GUESTROOM105 ZN PTAC OA NODE,Air,1
 Node,356,GUESTROOM201 ZN PTAC OA NODE,Air,1
 Node,357,GUESTROOM202_205 ZN PTAC OA NODE,Air,1
 Node,358,GUESTROOM206_208 ZN PTAC OA NODE,Air,1
 Node,359,GUESTROOM209_212 ZN PTAC OA NODE,Air,1
 Node,360,GUESTROOM213 ZN PTAC OA NODE,Air,1
 Node,361,GUESTROOM214 ZN PTAC OA NODE,Air,1
 Node,362,GUESTROOM215_218 ZN PTAC OA NODE,Air,1
 Node,363,GUESTROOM219 ZN PTAC OA NODE,Air,1
 Node,364,GUESTROOM220_223 ZN PTAC OA NODE,Air,1
 Node,365,GUESTROOM224 ZN PTAC OA NODE,Air,1
 Node,366,GUESTROOM301 ZN PTAC OA NODE,Air,1
 Node,367,GUESTROOM302_305 ZN PTAC OA NODE,Air,1
 Node,368,GUESTROOM306_308 ZN PTAC OA NODE,Air,1
 Node,369,GUESTROOM309_312 ZN PTAC OA NODE,Air,1
 Node,370,GUESTROOM313 ZN PTAC OA NODE,Air,1
 Node,371,GUESTROOM314 ZN PTAC OA NODE,Air,1
 Node,372,GUESTROOM315_318 ZN PTAC OA NODE,Air,1
 Node,373,GUESTROOM319 ZN PTAC OA NODE,Air,1
 Node,374,GUESTROOM320_323 ZN PTAC OA NODE,Air,1
 Node,375,GUESTROOM324 ZN PTAC OA NODE,Air,1
 Node,376,GUESTROOM401 ZN PTAC OA NODE,Air,1
 Node,377,GUESTROOM402_405 ZN PTAC OA NODE,Air,1
 Node,378,GUESTROOM406_408 ZN PTAC OA NODE,Air,1
 Node,379,GUESTROOM409_412 ZN PTAC OA NODE,Air,1
 Node,380,GUESTROOM413 ZN PTAC OA NODE,Air,1
 Node,381,GUESTROOM414 ZN PTAC OA NODE,Air,1
 Node,382,GUESTROOM415_418 ZN PTAC OA NODE,Air,1
 Node,383,GUESTROOM419 ZN PTAC OA NODE,Air,1
 Node,384,GUESTROOM420_423 ZN PTAC OA NODE,Air,1
 Node,385,GUESTROOM424 ZN PTAC OA NODE,Air,1
 Node,386,NODE 151,Air,2
 Node,387,NODE 167,Air,2
 Node,388,NODE 179,Air,2
 Node,389,NODE 191,Air,2
 Node,390,MODEL OUTDOOR AIR NODE,Air,0
 Node,391,CORRIDORFLR1 ZN PTAC MIXED AIR NODE,Air,1
 Node,392,CORRIDORFLR1 ZN PTAC RELIEF AIR NODE,Air,0
 Node,393,CORRIDORFLR2 ZN PTAC MIXED AIR NODE,Air,1
 Node,394,CORRIDORFLR2 ZN PTAC RELIEF AIR NODE,Air,0
 Node,395,CORRIDORFLR3 ZN PTAC MIXED AIR NODE,Air,1
 Node,396,CORRIDORFLR3 ZN PTAC RELIEF AIR NODE,Air,0
 Node,397,CORRIDORFLR4 ZN PTAC MIXED AIR NODE,Air,1
 Node,398,CORRIDORFLR4 ZN PTAC RELIEF AIR NODE,Air,0
 Node,399,GUESTROOM101 ZN PTAC MIXED AIR NODE,Air,1
 Node,400,GUESTROOM101 ZN PTAC RELIEF AIR NODE,Air,0
 Node,401,GUESTROOM102 ZN PTAC MIXED AIR NODE,Air,1
 Node,402,GUESTROOM102 ZN PTAC RELIEF AIR NODE,Air,0
 Node,403,GUESTROOM103 ZN PTAC MIXED AIR NODE,Air,1
 Node,404,GUESTROOM103 ZN PTAC RELIEF AIR NODE,Air,0
 Node,405,GUESTROOM104 ZN PTAC MIXED AIR NODE,Air,1
 Node,406,GUESTROOM104 ZN PTAC RELIEF AIR NODE,Air,0
 Node,407,GUESTROOM105 ZN PTAC MIXED AIR NODE,Air,1
 Node,408,GUESTROOM105 ZN PTAC RELIEF AIR NODE,Air,0
 Node,409,GUESTROOM201 ZN PTAC MIXED AIR NODE,Air,1
 Node,410,GUESTROOM201 ZN PTAC RELIEF AIR NODE,Air,0
 Node,411,GUESTROOM202_205 ZN PTAC MIXED AIR NODE,Air,1
 Node,412,GUESTROOM202_205 ZN PTAC RELIEF AIR NODE,Air,0
 Node,413,GUESTROOM206_208 ZN PTAC MIXED AIR NODE,Air,1
 Node,414,GUESTROOM206_208 ZN PTAC RELIEF AIR NODE,Air,0
 Node,415,GUESTROOM209_212 ZN PTAC MIXED AIR NODE,Air,1
 Node,416,GUESTROOM209_212 ZN PTAC RELIEF AIR NODE,Air,0
 Node,417,GUESTROOM213 ZN PTAC MIXED AIR NODE,Air,1
 Node,418,GUESTROOM213 ZN PTAC RELIEF AIR NODE,Air,0
 Node,419,GUESTROOM214 ZN PTAC MIXED AIR NODE,Air,1
 Node,420,GUESTROOM214 ZN PTAC RELIEF AIR NODE,Air,0
 Node,421,GUESTROOM215_218 ZN PTAC MIXED AIR NODE,Air,1
 Node,422,GUESTROOM215_218 ZN PTAC RELIEF AIR NODE,Air,0
 Node,423,GUESTROOM219 ZN PTAC MIXED AIR NODE,Air,1
 Node,424,GUESTROOM219 ZN PTAC RELIEF AIR NODE,Air,0
 Node,425,GUESTROOM220_223 ZN PTAC MIXED AIR NODE,Air,1
 Node,426,GUESTROOM220_223 ZN PTAC RELIEF AIR NODE,Air,0
 Node,427,GUESTROOM224 ZN PTAC MIXED AIR NODE,Air,1
 Node,428,GUESTROOM224 ZN PTAC RELIEF AIR NODE,Air,0
 Node,429,GUESTROOM301 ZN PTAC MIXED AIR NODE,Air,1
 Node,430,GUESTROOM301 ZN PTAC RELIEF AIR NODE,Air,0
 Node,431,GUESTROOM302_305 ZN PTAC MIXED AIR NODE,Air,1
 Node,432,GUESTROOM302_305 ZN PTAC RELIEF AIR NODE,Air,0
 Node,433,GUESTROOM306_308 ZN PTAC MIXED AIR NODE,Air,1
 Node,434,GUESTROOM306_308 ZN PTAC RELIEF AIR NODE,Air,0
 Node,435,GUESTROOM309_312 ZN PTAC MIXED AIR NODE,Air,1
 Node,436,GUESTROOM309_312 ZN PTAC RELIEF AIR NODE,Air,0
 Node,437,GUESTROOM313 ZN PTAC MIXED AIR NODE,Air,1
 Node,438,GUESTROOM313 ZN PTAC RELIEF AIR NODE,Air,0
 Node,439,GUESTROOM314 ZN PTAC MIXED AIR NODE,Air,1
 Node,440,GUESTROOM314 ZN PTAC RELIEF AIR NODE,Air,0
 Node,441,GUESTROOM315_318 ZN PTAC MIXED AIR NODE,Air,1
 Node,442,GUESTROOM315_318 ZN PTAC RELIEF AIR NODE,Air,0
 Node,443,GUESTROOM319 ZN PTAC MIXED AIR NODE,Air,1
 Node,444,GUESTROOM319 ZN PTAC RELIEF AIR NODE,Air,0
 Node,445,GUESTROOM320_323 ZN PTAC MIXED AIR NODE,Air,1
 Node,446,GUESTROOM320_323 ZN PTAC RELIEF AIR NODE,Air,0
 Node,447,GUESTROOM324 ZN PTAC MIXED AIR NODE,Air,1
 Node,448,GUESTROOM324 ZN PTAC RELIEF AIR NODE,Air,0
 Node,449,GUESTROOM401 ZN PTAC MIXED AIR NODE,Air,1
 Node,450,GUESTROOM401 ZN PTAC RELIEF AIR NODE,Air,0
 Node,451,GUESTROOM402_405 ZN PTAC MIXED AIR NODE,Air,1
 Node,452,GUESTROOM402_405 ZN PTAC RELIEF AIR NODE,Air,0
 Node,453,GUESTROOM406_408 ZN PTAC MIXED AIR NODE,Air,1
 Node,454,GUESTROOM406_408 ZN PTAC RELIEF AIR NODE,Air,0
 Node,455,GUESTROOM409_412 ZN PTAC MIXED AIR NODE,Air,1
 Node,456,GUESTROOM409_412 ZN PTAC RELIEF AIR NODE,Air,0
 Node,457,GUESTROOM413 ZN PTAC MIXED AIR NODE,Air,1
 Node,458,GUESTROOM413 ZN PTAC RELIEF AIR NODE,Air,0
 Node,459,GUESTROOM414 ZN PTAC MIXED AIR NODE,Air,1
 Node,460,GUESTROOM414 ZN PTAC RELIEF AIR NODE,Air,0
 Node,461,GUESTROOM415_418 ZN PTAC MIXED AIR NODE,Air,1
 Node,462,GUESTROOM415_418 ZN PTAC RELIEF AIR NODE,Air,0
 Node,463,GUESTROOM419 ZN PTAC MIXED AIR NODE,Air,1
 Node,464,GUESTROOM419 ZN PTAC RELIEF AIR NODE,Air,0
 Node,465,GUESTROOM420_423 ZN PTAC MIXED AIR NODE,Air,1
 Node,466,GUESTROOM420_423 ZN PTAC RELIEF AIR NODE,Air,0
 Node,467,GUESTROOM424 ZN PTAC MIXED AIR NODE,Air,1
 Node,468,GUESTROOM424 ZN PTAC RELIEF AIR NODE,Air,0
 Node,469,NODE 152,Air,1
 Node,470,NODE 168,Air,1
 Node,471,NODE 180,Air,1
 Node,472,NODE 192,Air,1
 Node,473,CORRIDORFLR1 ZN PTAC HEATING COIL OUTLET NODE,Air,1
 Node,474,CORRIDORFLR2 ZN PTAC HEATING COIL OUTLET NODE,Air,1
 Node,475,CORRIDORFLR3 ZN PTAC HEATING COIL OUTLET NODE,Air,1
 Node,476,CORRIDORFLR4 ZN PTAC HEATING COIL OUTLET NODE,Air,1
 Node,477,FRONTSTAIRSFLR1 ZN UNITHEATER FAN OUTLET NODE,Air,1
 Node,478,FRONTSTAIRSFLR2 ZN UNITHEATER FAN OUTLET NODE,Air,1
 Node,479,FRONTSTAIRSFLR3 ZN UNITHEATER FAN OUTLET NODE,Air,1
 Node,480,FRONTSTAIRSFLR4 ZN UNITHEATER FAN OUTLET NODE,Air,1
 Node,481,GUESTROOM101 ZN PTAC HEATING COIL OUTLET NODE,Air,1
 Node,482,GUESTROOM102 ZN PTAC HEATING COIL OUTLET NODE,Air,1
 Node,483,GUESTROOM103 ZN PTAC HEATING COIL OUTLET NODE,Air,1
 Node,484,GUESTROOM104 ZN PTAC HEATING COIL OUTLET NODE,Air,1
 Node,485,GUESTROOM105 ZN PTAC HEATING COIL OUTLET NODE,Air,1
 Node,486,GUESTROOM201 ZN PTAC HEATING COIL OUTLET NODE,Air,1
 Node,487,GUESTROOM202_205 ZN PTAC HEATING COIL OUTLET NODE,Air,1
 Node,488,GUESTROOM206_208 ZN PTAC HEATING COIL OUTLET NODE,Air,1
 Node,489,GUESTROOM209_212 ZN PTAC HEATING COIL OUTLET NODE,Air,1
 Node,490,GUESTROOM213 ZN PTAC HEATING COIL OUTLET NODE,Air,1
 Node,491,GUESTROOM214 ZN PTAC HEATING COIL OUTLET NODE,Air,1
 Node,492,GUESTROOM215_218 ZN PTAC HEATING COIL OUTLET NODE,Air,1
 Node,493,GUESTROOM219 ZN PTAC HEATING COIL OUTLET NODE,Air,1
 Node,494,GUESTROOM220_223 ZN PTAC HEATING COIL OUTLET NODE,Air,1
 Node,495,GUESTROOM224 ZN PTAC HEATING COIL OUTLET NODE,Air,1
 Node,496,GUESTROOM301 ZN PTAC HEATING COIL OUTLET NODE,Air,1
 Node,497,GUESTROOM302_305 ZN PTAC HEATING COIL OUTLET NODE,Air,1
 Node,498,GUESTROOM306_308 ZN PTAC HEATING COIL OUTLET NODE,Air,1
 Node,499,GUESTROOM309_312 ZN PTAC HEATING COIL OUTLET NODE,Air,1
 Node,500,GUESTROOM313 ZN PTAC HEATING COIL OUTLET NODE,Air,1
 Node,501,GUESTROOM314 ZN PTAC HEATING COIL OUTLET NODE,Air,1
 Node,502,GUESTROOM315_318 ZN PTAC HEATING COIL OUTLET NODE,Air,1
 Node,503,GUESTROOM319 ZN PTAC HEATING COIL OUTLET NODE,Air,1
 Node,504,GUESTROOM320_323 ZN PTAC HEATING COIL OUTLET NODE,Air,1
 Node,505,GUESTROOM324 ZN PTAC HEATING COIL OUTLET NODE,Air,1
 Node,506,GUESTROOM401 ZN PTAC HEATING COIL OUTLET NODE,Air,1
 Node,507,GUESTROOM402_405 ZN PTAC HEATING COIL OUTLET NODE,Air,1
 Node,508,GUESTROOM406_408 ZN PTAC HEATING COIL OUTLET NODE,Air,1
 Node,509,GUESTROOM409_412 ZN PTAC HEATING COIL OUTLET NODE,Air,1
 Node,510,GUESTROOM413 ZN PTAC HEATING COIL OUTLET NODE,Air,1
 Node,511,GUESTROOM414 ZN PTAC HEATING COIL OUTLET NODE,Air,1
 Node,512,GUESTROOM415_418 ZN PTAC HEATING COIL OUTLET NODE,Air,1
 Node,513,GUESTROOM419 ZN PTAC HEATING COIL OUTLET NODE,Air,1
 Node,514,GUESTROOM420_423 ZN PTAC HEATING COIL OUTLET NODE,Air,1
 Node,515,GUESTROOM424 ZN PTAC HEATING COIL OUTLET NODE,Air,1
 Node,516,MECHANICALROOMFLR1 ZN UNITHEATER FAN OUTLET NODE,Air,1
 Node,517,REARSTAIRSFLR1 ZN UNITHEATER FAN OUTLET NODE,Air,1
 Node,518,REARSTAIRSFLR2 ZN UNITHEATER FAN OUTLET NODE,Air,1
 Node,519,REARSTAIRSFLR3 ZN UNITHEATER FAN OUTLET NODE,Air,1
 Node,520,REARSTAIRSFLR4 ZN UNITHEATER FAN OUTLET NODE,Air,1
 Node,521,CORRIDORFLR1 ZN PTAC COOLING COIL OUTLET NODE,Air,1
 Node,522,CORRIDORFLR2 ZN PTAC COOLING COIL OUTLET NODE,Air,1
 Node,523,CORRIDORFLR3 ZN PTAC COOLING COIL OUTLET NODE,Air,1
 Node,524,CORRIDORFLR4 ZN PTAC COOLING COIL OUTLET NODE,Air,1
 Node,525,GUESTROOM101 ZN PTAC COOLING COIL OUTLET NODE,Air,1
 Node,526,GUESTROOM102 ZN PTAC COOLING COIL OUTLET NODE,Air,1
 Node,527,GUESTROOM103 ZN PTAC COOLING COIL OUTLET NODE,Air,1
 Node,528,GUESTROOM104 ZN PTAC COOLING COIL OUTLET NODE,Air,1
 Node,529,GUESTROOM105 ZN PTAC COOLING COIL OUTLET NODE,Air,1
 Node,530,GUESTROOM201 ZN PTAC COOLING COIL OUTLET NODE,Air,1
 Node,531,GUESTROOM202_205 ZN PTAC COOLING COIL OUTLET NODE,Air,1
 Node,532,GUESTROOM206_208 ZN PTAC COOLING COIL OUTLET NODE,Air,1
 Node,533,GUESTROOM209_212 ZN PTAC COOLING COIL OUTLET NODE,Air,1
 Node,534,GUESTROOM213 ZN PTAC COOLING COIL OUTLET NODE,Air,1
 Node,535,GUESTROOM214 ZN PTAC COOLING COIL OUTLET NODE,Air,1
 Node,536,GUESTROOM215_218 ZN PTAC COOLING COIL OUTLET NODE,Air,1
 Node,537,GUESTROOM219 ZN PTAC COOLING COIL OUTLET NODE,Air,1
 Node,538,GUESTROOM220_223 ZN PTAC COOLING COIL OUTLET NODE,Air,1
 Node,539,GUESTROOM224 ZN PTAC COOLING COIL OUTLET NODE,Air,1
 Node,540,GUESTROOM301 ZN PTAC COOLING COIL OUTLET NODE,Air,1
 Node,541,GUESTROOM302_305 ZN PTAC COOLING COIL OUTLET NODE,Air,1
 Node,542,GUESTROOM306_308 ZN PTAC COOLING COIL OUTLET NODE,Air,1
 Node,543,GUESTROOM309_312 ZN PTAC COOLING COIL OUTLET NODE,Air,1
 Node,544,GUESTROOM313 ZN PTAC COOLING COIL OUTLET NODE,Air,1
 Node,545,GUESTROOM314 ZN PTAC COOLING COIL OUTLET NODE,Air,1
 Node,546,GUESTROOM315_318 ZN PTAC COOLING COIL OUTLET NODE,Air,1
 Node,547,GUESTROOM319 ZN PTAC COOLING COIL OUTLET NODE,Air,1
 Node,548,GUESTROOM320_323 ZN PTAC COOLING COIL OUTLET NODE,Air,1
 Node,549,GUESTROOM324 ZN PTAC COOLING COIL OUTLET NODE,Air,1
 Node,550,GUESTROOM401 ZN PTAC COOLING COIL OUTLET NODE,Air,1
 Node,551,GUESTROOM402_405 ZN PTAC COOLING COIL OUTLET NODE,Air,1
 Node,552,GUESTROOM406_408 ZN PTAC COOLING COIL OUTLET NODE,Air,1
 Node,553,GUESTROOM409_412 ZN PTAC COOLING COIL OUTLET NODE,Air,1
 Node,554,GUESTROOM413 ZN PTAC COOLING COIL OUTLET NODE,Air,1
 Node,555,GUESTROOM414 ZN PTAC COOLING COIL OUTLET NODE,Air,1
 Node,556,GUESTROOM415_418 ZN PTAC COOLING COIL OUTLET NODE,Air,1
 Node,557,GUESTROOM419 ZN PTAC COOLING COIL OUTLET NODE,Air,1
 Node,558,GUESTROOM420_423 ZN PTAC COOLING COIL OUTLET NODE,Air,1
 Node,559,GUESTROOM424 ZN PTAC COOLING COIL OUTLET NODE,Air,1
! ===============================================================
! Suspicious nodes have 0 references.  It is normal for some nodes, however.
! Listing nodes with 0 references (culled from previous list):
! <Suspicious Node>,<NodeNumber>,<Node Name>,<Node Fluid Type>,<# Times Node Referenced After Definition>
 Suspicious Node,235,NODE 46,Air,0
 Suspicious Node,236,CORRIDORFLR1 ZN RETURN AIR NODE,Air,0
 Suspicious Node,237,NODE 1,Air,0
 Suspicious Node,238,CORRIDORFLR2 ZN RETURN AIR NODE,Air,0
 Suspicious Node,239,NODE 6,Air,0
 Suspicious Node,240,CORRIDORFLR3 ZN RETURN AIR NODE,Air,0
 Suspicious Node,241,NODE 53,Air,0
 Suspicious Node,242,CORRIDORFLR4 ZN RETURN AIR NODE,Air,0
 Suspicious Node,243,NODE 63,Air,0
 Suspicious Node,251,NODE 48,Air,0
 Suspicious Node,252,FRONTSTAIRSFLR1 ZN RETURN AIR NODE,Air,0
 Suspicious Node,253,NODE 36,Air,0
 Suspicious Node,254,FRONTSTAIRSFLR2 ZN RETURN AIR NODE,Air,0
 Suspicious Node,255,NODE 64,Air,0
 Suspicious Node,256,FRONTSTAIRSFLR3 ZN RETURN AIR NODE,Air,0
 Suspicious Node,257,NODE 4,Air,0
 Suspicious Node,258,FRONTSTAIRSFLR4 ZN RETURN AIR NODE,Air,0
 Suspicious Node,259,NODE 47,Air,0
 Suspicious Node,260,GUESTROOM101 ZN RETURN AIR NODE,Air,0
 Suspicious Node,261,NODE 59,Air,0
 Suspicious Node,262,GUESTROOM102 ZN RETURN AIR NODE,Air,0
 Suspicious Node,263,NODE 31,Air,0
 Suspicious Node,264,GUESTROOM103 ZN RETURN AIR NODE,Air,0
 Suspicious Node,265,NODE 29,Air,0
 Suspicious Node,266,GUESTROOM104 ZN RETURN AIR NODE,Air,0
 Suspicious Node,267,NODE 21,Air,0
 Suspicious Node,268,GUESTROOM105 ZN RETURN AIR NODE,Air,0
 Suspicious Node,269,NODE 57,Air,0
 Suspicious Node,270,GUESTROOM201 ZN RETURN AIR NODE,Air,0
 Suspicious Node,271,NODE 25,Air,0
 Suspicious Node,272,GUESTROOM202_205 ZN RETURN AIR NODE,Air,0
 Suspicious Node,273,NODE 65,Air,0
 Suspicious Node,274,GUESTROOM206_208 ZN RETURN AIR NODE,Air,0
 Suspicious Node,275,NODE 27,Air,0
 Suspicious Node,276,GUESTROOM209_212 ZN RETURN AIR NODE,Air,0
 Suspicious Node,277,NODE 2,Air,0
 Suspicious Node,278,GUESTROOM213 ZN RETURN AIR NODE,Air,0
 Suspicious Node,279,NODE 10,Air,0
 Suspicious Node,280,GUESTROOM214 ZN RETURN AIR NODE,Air,0
 Suspicious Node,281,NODE 61,Air,0
 Suspicious Node,282,GUESTROOM215_218 ZN RETURN AIR NODE,Air,0
 Suspicious Node,283,NODE 49,Air,0
 Suspicious Node,284,GUESTROOM219 ZN RETURN AIR NODE,Air,0
 Suspicious Node,285,NODE 9,Air,0
 Suspicious Node,286,GUESTROOM220_223 ZN RETURN AIR NODE,Air,0
 Suspicious Node,287,NODE 11,Air,0
 Suspicious Node,288,GUESTROOM224 ZN RETURN AIR NODE,Air,0
 Suspicious Node,289,NODE 7,Air,0
 Suspicious Node,290,GUESTROOM301 ZN RETURN AIR NODE,Air,0
 Suspicious Node,291,NODE 15,Air,0
 Suspicious Node,292,GUESTROOM302_305 ZN RETURN AIR NODE,Air,0
 Suspicious Node,293,NODE 42,Air,0
 Suspicious Node,294,GUESTROOM306_308 ZN RETURN AIR NODE,Air,0
 Suspicious Node,295,NODE 38,Air,0
 Suspicious Node,296,GUESTROOM309_312 ZN RETURN AIR NODE,Air,0
 Suspicious Node,297,NODE 8,Air,0
 Suspicious Node,298,GUESTROOM313 ZN RETURN AIR NODE,Air,0
 Suspicious Node,299,NODE 39,Air,0
 Suspicious Node,300,GUESTROOM314 ZN RETURN AIR NODE,Air,0
 Suspicious Node,301,NODE 41,Air,0
 Suspicious Node,302,GUESTROOM315_318 ZN RETURN AIR NODE,Air,0
 Suspicious Node,303,NODE 51,Air,0
 Suspicious Node,304,GUESTROOM319 ZN RETURN AIR NODE,Air,0
 Suspicious Node,305,NODE 67,Air,0
 Suspicious Node,306,GUESTROOM320_323 ZN RETURN AIR NODE,Air,0
 Suspicious Node,307,NODE 43,Air,0
 Suspicious Node,308,GUESTROOM324 ZN RETURN AIR NODE,Air,0
 Suspicious Node,309,NODE 28,Air,0
 Suspicious Node,310,GUESTROOM401 ZN RETURN AIR NODE,Air,0
 Suspicious Node,311,NODE 16,Air,0
 Suspicious Node,312,GUESTROOM402_405 ZN RETURN AIR NODE,Air,0
 Suspicious Node,313,NODE 52,Air,0
 Suspicious Node,314,GUESTROOM406_408 ZN RETURN AIR NODE,Air,0
 Suspicious Node,315,NODE 55,Air,0
 Suspicious Node,316,GUESTROOM409_412 ZN RETURN AIR NODE,Air,0
 Suspicious Node,317,NODE 58,Air,0
 Suspicious Node,318,GUESTROOM413 ZN RETURN AIR NODE,Air,0
 Suspicious Node,319,NODE 33,Air,0
 Suspicious Node,320,GUESTROOM414 ZN RETURN AIR NODE,Air,0
 Suspicious Node,321,NODE 30,Air,0
 Suspicious Node,322,GUESTROOM415_418 ZN RETURN AIR NODE,Air,0
 Suspicious Node,323,NODE 35,Air,0
 Suspicious Node,324,GUESTROOM419 ZN RETURN AIR NODE,Air,0
 Suspicious Node,325,NODE 32,Air,0
 Suspicious Node,326,GUESTROOM420_423 ZN RETURN AIR NODE,Air,0
 Suspicious Node,327,NODE 19,Air,0
 Suspicious Node,328,GUESTROOM424 ZN RETURN AIR NODE,Air,0
 Suspicious Node,329,NODE 22,Air,0
 Suspicious Node,330,MECHANICALROOMFLR1 ZN RETURN AIR NODE,Air,0
 Suspicious Node,333,NODE 60,Air,0
 Suspicious Node,334,REARSTAIRSFLR1 ZN RETURN AIR NODE,Air,0
 Suspicious Node,335,NODE 54,Air,0
 Suspicious Node,336,REARSTAIRSFLR2 ZN RETURN AIR NODE,Air,0
 Suspicious Node,337,NODE 37,Air,0
 Suspicious Node,338,REARSTAIRSFLR3 ZN RETURN AIR NODE,Air,0
 Suspicious Node,339,NODE 3,Air,0
 Suspicious Node,340,REARSTAIRSFLR4 ZN RETURN AIR NODE,Air,0
 Suspicious Node,341,NODE 45,Air,0
 Suspicious Node,390,MODEL OUTDOOR AIR NODE,Air,0
 Suspicious Node,392,CORRIDORFLR1 ZN PTAC RELIEF AIR NODE,Air,0
 Suspicious Node,394,CORRIDORFLR2 ZN PTAC RELIEF AIR NODE,Air,0
 Suspicious Node,396,CORRIDORFLR3 ZN PTAC RELIEF AIR NODE,Air,0
 Suspicious Node,398,CORRIDORFLR4 ZN PTAC RELIEF AIR NODE,Air,0
 Suspicious Node,400,GUESTROOM101 ZN PTAC RELIEF AIR NODE,Air,0
 Suspicious Node,402,GUESTROOM102 ZN PTAC RELIEF AIR NODE,Air,0
 Suspicious Node,404,GUESTROOM103 ZN PTAC RELIEF AIR NODE,Air,0
 Suspicious Node,406,GUESTROOM104 ZN PTAC RELIEF AIR NODE,Air,0
 Suspicious Node,408,GUESTROOM105 ZN PTAC RELIEF AIR NODE,Air,0
 Suspicious Node,410,GUESTROOM201 ZN PTAC RELIEF AIR NODE,Air,0
 Suspicious Node,412,GUESTROOM202_205 ZN PTAC RELIEF AIR NODE,Air,0
 Suspicious Node,414,GUESTROOM206_208 ZN PTAC RELIEF AIR NODE,Air,0
 Suspicious Node,416,GUESTROOM209_212 ZN PTAC RELIEF AIR NODE,Air,0
 Suspicious Node,418,GUESTROOM213 ZN PTAC RELIEF AIR NODE,Air,0
 Suspicious Node,420,GUESTROOM214 ZN PTAC RELIEF AIR NODE,Air,0
 Suspicious Node,422,GUESTROOM215_218 ZN PTAC RELIEF AIR NODE,Air,0
 Suspicious Node,424,GUESTROOM219 ZN PTAC RELIEF AIR NODE,Air,0
 Suspicious Node,426,GUESTROOM220_223 ZN PTAC RELIEF AIR NODE,Air,0
 Suspicious Node,428,GUESTROOM224 ZN PTAC RELIEF AIR NODE,Air,0
 Suspicious Node,430,GUESTROOM301 ZN PTAC RELIEF AIR NODE,Air,0
 Suspicious Node,432,GUESTROOM302_305 ZN PTAC RELIEF AIR NODE,Air,0
 Suspicious Node,434,GUESTROOM306_308 ZN PTAC RELIEF AIR NODE,Air,0
 Suspicious Node,436,GUESTROOM309_312 ZN PTAC RELIEF AIR NODE,Air,0
 Suspicious Node,438,GUESTROOM313 ZN PTAC RELIEF AIR NODE,Air,0
 Suspicious Node,440,GUESTROOM314 ZN PTAC RELIEF AIR NODE,Air,0
 Suspicious Node,442,GUESTROOM315_318 ZN PTAC RELIEF AIR NODE,Air,0
 Suspicious Node,444,GUESTROOM319 ZN PTAC RELIEF AIR NODE,Air,0
 Suspicious Node,446,GUESTROOM320_323 ZN PTAC RELIEF AIR NODE,Air,0
 Suspicious Node,448,GUESTROOM324 ZN PTAC RELIEF AIR NODE,Air,0
 Suspicious Node,450,GUESTROOM401 ZN PTAC RELIEF AIR NODE,Air,0
 Suspicious Node,452,GUESTROOM402_405 ZN PTAC RELIEF AIR NODE,Air,0
 Suspicious Node,454,GUESTROOM406_408 ZN PTAC RELIEF AIR NODE,Air,0
 Suspicious Node,456,GUESTROOM409_412 ZN PTAC RELIEF AIR NODE,Air,0
 Suspicious Node,458,GUESTROOM413 ZN PTAC RELIEF AIR NODE,Air,0
 Suspicious Node,460,GUESTROOM414 ZN PTAC RELIEF AIR NODE,Air,0
 Suspicious Node,462,GUESTROOM415_418 ZN PTAC RELIEF AIR NODE,Air,0
 Suspicious Node,464,GUESTROOM419 ZN PTAC RELIEF AIR NODE,Air,0
 Suspicious Node,466,GUESTROOM420_423 ZN PTAC RELIEF AIR NODE,Air,0
 Suspicious Node,468,GUESTROOM424 ZN PTAC RELIEF AIR NODE,Air,0
! ===============================================================
! <#Branch Lists>,<Number of Branch Lists>
 #Branch Lists,8
! <Branch List>,<Branch List Count>,<Branch List Name>,<Loop Name>,<Loop Type>,<Number of Branches>
! <Branch>,<Branch Count>,<Branch Name>,<Loop Name>,<Loop Type>,<Branch Inlet Node Name>,<Branch Outlet Node Name>
 Branch List,1,EXERCISECENTERFLR1 ZN - EMPLOYEELOUNGEFLR1 ZN - RESTROOMFLR1 ZN SAC SUPPLY BRANCHES,EXERCISECENTERFLR1 ZN - EMPLOYEELOUNGEFLR1 ZN - RESTROOMFLR1 ZN SAC,Air,1
   Branch,1,EXERCISECENTERFLR1 ZN - EMPLOYEELOUNGEFLR1 ZN - RESTROOMFLR1 ZN SAC MAIN BRANCH,EXERCISECENTERFLR1 ZN - EMPLOYEELOUNGEFLR1 ZN - RESTROOMFLR1 ZN SAC,Air,NODE 146,NODE 147
 Branch List,2,FRONTLOUNGEFLR1 ZN SAC SUPPLY BRANCHES,FRONTLOUNGEFLR1 ZN SAC,Air,1
   Branch,1,FRONTLOUNGEFLR1 ZN SAC MAIN BRANCH,FRONTLOUNGEFLR1 ZN SAC,Air,NODE 162,NODE 163
 Branch List,3,FRONTOFFICEFLR1 ZN SAC SUPPLY BRANCHES,FRONTOFFICEFLR1 ZN SAC,Air,1
   Branch,1,FRONTOFFICEFLR1 ZN SAC MAIN BRANCH,FRONTOFFICEFLR1 ZN SAC,Air,NODE 174,NODE 175
 Branch List,4,MEETINGROOMFLR1 ZN SAC SUPPLY BRANCHES,MEETINGROOMFLR1 ZN SAC,Air,1
   Branch,1,MEETINGROOMFLR1 ZN SAC MAIN BRANCH,MEETINGROOMFLR1 ZN SAC,Air,NODE 186,NODE 187
 Branch List,5,LAUNDRY SERVICE WATER LOOP SUPPLY BRANCHES,LAUNDRY SERVICE WATER LOOP,Plant Supply,4
   Branch,1,LAUNDRY SERVICE WATER LOOP SUPPLY INLET BRANCH,LAUNDRY SERVICE WATER LOOP,Plant Supply,NODE 300,NODE 306
   Branch,2,LAUNDRY SERVICE WATER LOOP SUPPLY BRANCH 1,LAUNDRY SERVICE WATER LOOP,Plant Supply,NODE 302,NODE 307
   Branch,3,LAUNDRY SERVICE WATER LOOP SUPPLY BRANCH 2,LAUNDRY SERVICE WATER LOOP,Plant Supply,NODE 308,NODE 309
   Branch,4,LAUNDRY SERVICE WATER LOOP SUPPLY OUTLET BRANCH,LAUNDRY SERVICE WATER LOOP,Plant Supply,NODE 311,NODE 301
 Branch List,6,LAUNDRY SERVICE WATER LOOP DEMAND BRANCHES,LAUNDRY SERVICE WATER LOOP,Plant Demand,5
   Branch,1,LAUNDRY SERVICE WATER LOOP DEMAND INLET BRANCH,LAUNDRY SERVICE WATER LOOP,Plant Demand,NODE 303,NODE 312
   Branch,2,LAUNDRY SERVICE WATER LOOP DEMAND BRANCH 1,LAUNDRY SERVICE WATER LOOP,Plant Demand,NODE 305,NODE 310
   Branch,3,LAUNDRY SERVICE WATER LOOP DEMAND BRANCH 2,LAUNDRY SERVICE WATER LOOP,Plant Demand,NODE 314,NODE 315
   Branch,4,LAUNDRY SERVICE WATER LOOP DEMAND BYPASS BRANCH,LAUNDRY SERVICE WATER LOOP,Plant Demand,LAUNDRY SERVICE WATER LOOP DEMAND BYPASS PIPE INLET NODE,LAUNDRY SERVICE WATER LOOP DEMAND BYPASS PIPE OUTLET NODE
   Branch,5,LAUNDRY SERVICE WATER LOOP DEMAND OUTLET BRANCH,LAUNDRY SERVICE WATER LOOP,Plant Demand,NODE 313,NODE 304
 Branch List,7,MAIN SERVICE WATER LOOP SUPPLY BRANCHES,MAIN SERVICE WATER LOOP,Plant Supply,4
   Branch,1,MAIN SERVICE WATER LOOP SUPPLY INLET BRANCH,MAIN SERVICE WATER LOOP,Plant Supply,NODE 216,NODE 222
   Branch,2,MAIN SERVICE WATER LOOP SUPPLY BRANCH 1,MAIN SERVICE WATER LOOP,Plant Supply,NODE 218,NODE 223
   Branch,3,MAIN SERVICE WATER LOOP SUPPLY BRANCH 2,MAIN SERVICE WATER LOOP,Plant Supply,NODE 224,NODE 225
   Branch,4,MAIN SERVICE WATER LOOP SUPPLY OUTLET BRANCH,MAIN SERVICE WATER LOOP,Plant Supply,NODE 227,NODE 217
 Branch List,8,MAIN SERVICE WATER LOOP DEMAND BRANCHES,MAIN SERVICE WATER LOOP,Plant Demand,39
   Branch,1,MAIN SERVICE WATER LOOP DEMAND INLET BRANCH,MAIN SERVICE WATER LOOP,Plant Demand,NODE 219,NODE 228
   Branch,2,MAIN SERVICE WATER LOOP DEMAND BRANCH 1,MAIN SERVICE WATER LOOP,Plant Demand,NODE 221,NODE 226
   Branch,3,MAIN SERVICE WATER LOOP DEMAND BRANCH 2,MAIN SERVICE WATER LOOP,Plant Demand,NODE 230,NODE 231
   Branch,4,MAIN SERVICE WATER LOOP DEMAND BRANCH 3,MAIN SERVICE WATER LOOP,Plant Demand,NODE 232,NODE 233
   Branch,5,MAIN SERVICE WATER LOOP DEMAND BRANCH 4,MAIN SERVICE WATER LOOP,Plant Demand,NODE 234,NODE 235
   Branch,6,MAIN SERVICE WATER LOOP DEMAND BRANCH 5,MAIN SERVICE WATER LOOP,Plant Demand,NODE 236,NODE 237
   Branch,7,MAIN SERVICE WATER LOOP DEMAND BRANCH 6,MAIN SERVICE WATER LOOP,Plant Demand,NODE 238,NODE 239
   Branch,8,MAIN SERVICE WATER LOOP DEMAND BRANCH 7,MAIN SERVICE WATER LOOP,Plant Demand,NODE 240,NODE 241
   Branch,9,MAIN SERVICE WATER LOOP DEMAND BRANCH 8,MAIN SERVICE WATER LOOP,Plant Demand,NODE 242,NODE 243
   Branch,10,MAIN SERVICE WATER LOOP DEMAND BRANCH 9,MAIN SERVICE WATER LOOP,Plant Demand,NODE 244,NODE 245
   Branch,11,MAIN SERVICE WATER LOOP DEMAND BRANCH 10,MAIN SERVICE WATER LOOP,Plant Demand,NODE 246,NODE 247
   Branch,12,MAIN SERVICE WATER LOOP DEMAND BRANCH 11,MAIN SERVICE WATER LOOP,Plant Demand,NODE 248,NODE 249
   Branch,13,MAIN SERVICE WATER LOOP DEMAND BRANCH 12,MAIN SERVICE WATER LOOP,Plant Demand,NODE 250,NODE 251
   Branch,14,MAIN SERVICE WATER LOOP DEMAND BRANCH 13,MAIN SERVICE WATER LOOP,Plant Demand,NODE 252,NODE 253
   Branch,15,MAIN SERVICE WATER LOOP DEMAND BRANCH 14,MAIN SERVICE WATER LOOP,Plant Demand,NODE 254,NODE 255
   Branch,16,MAIN SERVICE WATER LOOP DEMAND BRANCH 15,MAIN SERVICE WATER LOOP,Plant Demand,NODE 256,NODE 257
   Branch,17,MAIN SERVICE WATER LOOP DEMAND BRANCH 16,MAIN SERVICE WATER LOOP,Plant Demand,NODE 258,NODE 259
   Branch,18,MAIN SERVICE WATER LOOP DEMAND BRANCH 17,MAIN SERVICE WATER LOOP,Plant Demand,NODE 260,NODE 261
   Branch,19,MAIN SERVICE WATER LOOP DEMAND BRANCH 18,MAIN SERVICE WATER LOOP,Plant Demand,NODE 262,NODE 263
   Branch,20,MAIN SERVICE WATER LOOP DEMAND BRANCH 19,MAIN SERVICE WATER LOOP,Plant Demand,NODE 264,NODE 265
   Branch,21,MAIN SERVICE WATER LOOP DEMAND BRANCH 20,MAIN SERVICE WATER LOOP,Plant Demand,NODE 266,NODE 267
   Branch,22,MAIN SERVICE WATER LOOP DEMAND BRANCH 21,MAIN SERVICE WATER LOOP,Plant Demand,NODE 268,NODE 269
   Branch,23,MAIN SERVICE WATER LOOP DEMAND BRANCH 22,MAIN SERVICE WATER LOOP,Plant Demand,NODE 270,NODE 271
   Branch,24,MAIN SERVICE WATER LOOP DEMAND BRANCH 23,MAIN SERVICE WATER LOOP,Plant Demand,NODE 272,NODE 273
   Branch,25,MAIN SERVICE WATER LOOP DEMAND BRANCH 24,MAIN SERVICE WATER LOOP,Plant Demand,NODE 274,NODE 275
   Branch,26,MAIN SERVICE WATER LOOP DEMAND BRANCH 25,MAIN SERVICE WATER LOOP,Plant Demand,NODE 276,NODE 277
   Branch,27,MAIN SERVICE WATER LOOP DEMAND BRANCH 26,MAIN SERVICE WATER LOOP,Plant Demand,NODE 278,NODE 279
   Branch,28,MAIN SERVICE WATER LOOP DEMAND BRANCH 27,MAIN SERVICE WATER LOOP,Plant Demand,NODE 280,NODE 281
   Branch,29,MAIN SERVICE WATER LOOP DEMAND BRANCH 28,MAIN SERVICE WATER LOOP,Plant Demand,NODE 282,NODE 283
   Branch,30,MAIN SERVICE WATER LOOP DEMAND BRANCH 29,MAIN SERVICE WATER LOOP,Plant Demand,NODE 284,NODE 285
   Branch,31,MAIN SERVICE WATER LOOP DEMAND BRANCH 30,MAIN SERVICE WATER LOOP,Plant Demand,NODE 286,NODE 287
   Branch,32,MAIN SERVICE WATER LOOP DEMAND BRANCH 31,MAIN SERVICE WATER LOOP,Plant Demand,NODE 288,NODE 289
   Branch,33,MAIN SERVICE WATER LOOP DEMAND BRANCH 32,MAIN SERVICE WATER LOOP,Plant Demand,NODE 290,NODE 291
   Branch,34,MAIN SERVICE WATER LOOP DEMAND BRANCH 33,MAIN SERVICE WATER LOOP,Plant Demand,NODE 292,NODE 293
   Branch,35,MAIN SERVICE WATER LOOP DEMAND BRANCH 34,MAIN SERVICE WATER LOOP,Plant Demand,NODE 294,NODE 295
   Branch,36,MAIN SERVICE WATER LOOP DEMAND BRANCH 35,MAIN SERVICE WATER LOOP,Plant Demand,NODE 296,NODE 297
   Branch,37,MAIN SERVICE WATER LOOP DEMAND BRANCH 36,MAIN SERVICE WATER LOOP,Plant Demand,NODE 298,NODE 299
   Branch,38,MAIN SERVICE WATER LOOP DEMAND BYPASS BRANCH,MAIN SERVICE WATER LOOP,Plant Demand,MAIN SERVICE WATER LOOP DEMAND BYPASS PIPE INLET NODE,MAIN SERVICE WATER LOOP DEMAND BYPASS PIPE OUTLET NODE
   Branch,39,MAIN SERVICE WATER LOOP DEMAND OUTLET BRANCH,MAIN SERVICE WATER LOOP,Plant Demand,NODE 229,NODE 220
! ===============================================================
! <#Supply Air Paths>,<Number of Supply Air Paths>
 #Supply Air Paths,4
! <Supply Air Path>,<Supply Air Path Count>,<Supply Air Path Name>,<AirLoopHVAC Name>
! <#Components on Supply Air Path>,<Number of Components>
! <Supply Air Path Component>,<Component Count>,<Component Type>,<Component Name>,<AirLoopHVAC Name>
! <#Outlet Nodes on Supply Air Path Component>,<Number of Nodes>
! <Supply Air Path Component Nodes>,<Node Count>,<Component Type>,<Component Name>,<Inlet Node Name>,<Outlet Node Name>,<AirLoopHVAC Name>
 Supply Air Path,1,EXERCISECENTERFLR1 ZN - EMPLOYEELOUNGEFLR1 ZN - RESTROOMFLR1 ZN SAC NODE 148 SUPPLY PATH,EXERCISECENTERFLR1 ZN - EMPLOYEELOUNGEFLR1 ZN - RESTROOMFLR1 ZN SAC
   #Components on Supply Air Path,1
   Supply Air Path Component,1,AIRLOOPHVAC:ZONESPLITTER,AIR LOOP HVAC ZONE SPLITTER 1,EXERCISECENTERFLR1 ZN - EMPLOYEELOUNGEFLR1 ZN - RESTROOMFLR1 ZN SAC
     #Outlet Nodes on Supply Air Path Component,3
     Supply Air Path Component Nodes,1,AIRLOOPHVAC:ZONESPLITTER,AIR LOOP HVAC ZONE SPLITTER 1,NODE 148,NODE 150,EXERCISECENTERFLR1 ZN - EMPLOYEELOUNGEFLR1 ZN - RESTROOMFLR1 ZN SAC
     Supply Air Path Component Nodes,2,AIRLOOPHVAC:ZONESPLITTER,AIR LOOP HVAC ZONE SPLITTER 1,NODE 148,NODE 158,EXERCISECENTERFLR1 ZN - EMPLOYEELOUNGEFLR1 ZN - RESTROOMFLR1 ZN SAC
     Supply Air Path Component Nodes,3,AIRLOOPHVAC:ZONESPLITTER,AIR LOOP HVAC ZONE SPLITTER 1,NODE 148,NODE 160,EXERCISECENTERFLR1 ZN - EMPLOYEELOUNGEFLR1 ZN - RESTROOMFLR1 ZN SAC
! <#Nodes on Supply Air Path>,<Number of Nodes>
! <Supply Air Path Node>,<Node Type>,<Node Count>,<Node Name>,<AirLoopHVAC Name>
#Nodes on Supply Air Path,4
   Supply Air Path Node,Inlet Node,1,NODE 148,EXERCISECENTERFLR1 ZN - EMPLOYEELOUNGEFLR1 ZN - RESTROOMFLR1 ZN SAC
   Supply Air Path Node,Outlet Node,2,NODE 150,EXERCISECENTERFLR1 ZN - EMPLOYEELOUNGEFLR1 ZN - RESTROOMFLR1 ZN SAC
   Supply Air Path Node,Outlet Node,3,NODE 158,EXERCISECENTERFLR1 ZN - EMPLOYEELOUNGEFLR1 ZN - RESTROOMFLR1 ZN SAC
   Supply Air Path Node,Outlet Node,4,NODE 160,EXERCISECENTERFLR1 ZN - EMPLOYEELOUNGEFLR1 ZN - RESTROOMFLR1 ZN SAC
 Supply Air Path,2,FRONTLOUNGEFLR1 ZN SAC NODE 164 SUPPLY PATH,FRONTLOUNGEFLR1 ZN SAC
   #Components on Supply Air Path,1
   Supply Air Path Component,1,AIRLOOPHVAC:ZONESPLITTER,AIR LOOP HVAC ZONE SPLITTER 2,FRONTLOUNGEFLR1 ZN SAC
     #Outlet Nodes on Supply Air Path Component,1
     Supply Air Path Component Nodes,1,AIRLOOPHVAC:ZONESPLITTER,AIR LOOP HVAC ZONE SPLITTER 2,NODE 164,NODE 166,FRONTLOUNGEFLR1 ZN SAC
! <#Nodes on Supply Air Path>,<Number of Nodes>
! <Supply Air Path Node>,<Node Type>,<Node Count>,<Node Name>,<AirLoopHVAC Name>
#Nodes on Supply Air Path,2
   Supply Air Path Node,Inlet Node,1,NODE 164,FRONTLOUNGEFLR1 ZN SAC
   Supply Air Path Node,Outlet Node,2,NODE 166,FRONTLOUNGEFLR1 ZN SAC
 Supply Air Path,3,FRONTOFFICEFLR1 ZN SAC NODE 176 SUPPLY PATH,FRONTOFFICEFLR1 ZN SAC
   #Components on Supply Air Path,1
   Supply Air Path Component,1,AIRLOOPHVAC:ZONESPLITTER,AIR LOOP HVAC ZONE SPLITTER 3,FRONTOFFICEFLR1 ZN SAC
     #Outlet Nodes on Supply Air Path Component,1
     Supply Air Path Component Nodes,1,AIRLOOPHVAC:ZONESPLITTER,AIR LOOP HVAC ZONE SPLITTER 3,NODE 176,NODE 178,FRONTOFFICEFLR1 ZN SAC
! <#Nodes on Supply Air Path>,<Number of Nodes>
! <Supply Air Path Node>,<Node Type>,<Node Count>,<Node Name>,<AirLoopHVAC Name>
#Nodes on Supply Air Path,2
   Supply Air Path Node,Inlet Node,1,NODE 176,FRONTOFFICEFLR1 ZN SAC
   Supply Air Path Node,Outlet Node,2,NODE 178,FRONTOFFICEFLR1 ZN SAC
 Supply Air Path,4,MEETINGROOMFLR1 ZN SAC NODE 188 SUPPLY PATH,MEETINGROOMFLR1 ZN SAC
   #Components on Supply Air Path,1
   Supply Air Path Component,1,AIRLOOPHVAC:ZONESPLITTER,AIR LOOP HVAC ZONE SPLITTER 4,MEETINGROOMFLR1 ZN SAC
     #Outlet Nodes on Supply Air Path Component,1
     Supply Air Path Component Nodes,1,AIRLOOPHVAC:ZONESPLITTER,AIR LOOP HVAC ZONE SPLITTER 4,NODE 188,NODE 190,MEETINGROOMFLR1 ZN SAC
! <#Nodes on Supply Air Path>,<Number of Nodes>
! <Supply Air Path Node>,<Node Type>,<Node Count>,<Node Name>,<AirLoopHVAC Name>
#Nodes on Supply Air Path,2
   Supply Air Path Node,Inlet Node,1,NODE 188,MEETINGROOMFLR1 ZN SAC
   Supply Air Path Node,Outlet Node,2,NODE 190,MEETINGROOMFLR1 ZN SAC
! ===============================================================
! <#Return Air Paths>,<Number of Return Air Paths>
 #Return Air Paths,4
! <Return Air Path>,<Return Air Path Count>,<Return Air Path Name>,<AirLoopHVAC Name>
! <#Components on Return Air Path>,<Number of Components>
! <Return Air Path Component>,<Component Count>,<Component Type>,<Component Name>,<AirLoopHVAC Name>
! <#Inlet Nodes on Return Air Path Component>,<Number of Nodes>
! <Return Air Path Component Nodes>,<Node Count>,<Component Type>,<Component Name>,<Inlet Node Name>,<Outlet Node Name>,<AirLoopHVAC Name>
 Return Air Path,1,EXERCISECENTERFLR1 ZN - EMPLOYEELOUNGEFLR1 ZN - RESTROOMFLR1 ZN SAC RETURN PATH,EXERCISECENTERFLR1 ZN - EMPLOYEELOUNGEFLR1 ZN - RESTROOMFLR1 ZN SAC
   #Components on Return Air Path,1
   Return Air Path Component,1,AIRLOOPHVAC:ZONEMIXER,AIR LOOP HVAC ZONE MIXER 1,EXERCISECENTERFLR1 ZN - EMPLOYEELOUNGEFLR1 ZN - RESTROOMFLR1 ZN SAC
     #Inlet Nodes on Return Air Path Component,3
     Return Air Path Component Nodes,1,AIRLOOPHVAC:ZONEMIXER,AIR LOOP HVAC ZONE MIXER 1,NODE 157,NODE 149,EXERCISECENTERFLR1 ZN - EMPLOYEELOUNGEFLR1 ZN - RESTROOMFLR1 ZN SAC
     Return Air Path Component Nodes,2,AIRLOOPHVAC:ZONEMIXER,AIR LOOP HVAC ZONE MIXER 1,NODE 159,NODE 149,EXERCISECENTERFLR1 ZN - EMPLOYEELOUNGEFLR1 ZN - RESTROOMFLR1 ZN SAC
     Return Air Path Component Nodes,3,AIRLOOPHVAC:ZONEMIXER,AIR LOOP HVAC ZONE MIXER 1,NODE 161,NODE 149,EXERCISECENTERFLR1 ZN - EMPLOYEELOUNGEFLR1 ZN - RESTROOMFLR1 ZN SAC
! <#Nodes on Return Air Path>,<Number of Nodes>
! <Return Air Path Node>,<Node Type>,<Node Count>,<Node Name>,<AirLoopHVAC Name>
   #Nodes on Return Air Path,4
   Return Air Path Node,Outlet Node,1,NODE 149,EXERCISECENTERFLR1 ZN - EMPLOYEELOUNGEFLR1 ZN - RESTROOMFLR1 ZN SAC
   Return Air Path Node,Inlet Node,2,NODE 157,EXERCISECENTERFLR1 ZN - EMPLOYEELOUNGEFLR1 ZN - RESTROOMFLR1 ZN SAC
   Return Air Path Node,Inlet Node,3,NODE 159,EXERCISECENTERFLR1 ZN - EMPLOYEELOUNGEFLR1 ZN - RESTROOMFLR1 ZN SAC
   Return Air Path Node,Inlet Node,4,NODE 161,EXERCISECENTERFLR1 ZN - EMPLOYEELOUNGEFLR1 ZN - RESTROOMFLR1 ZN SAC
 Return Air Path,2,FRONTLOUNGEFLR1 ZN SAC RETURN PATH,FRONTLOUNGEFLR1 ZN SAC
   #Components on Return Air Path,1
   Return Air Path Component,1,AIRLOOPHVAC:ZONEMIXER,AIR LOOP HVAC ZONE MIXER 2,FRONTLOUNGEFLR1 ZN SAC
     #Inlet Nodes on Return Air Path Component,1
     Return Air Path Component Nodes,1,AIRLOOPHVAC:ZONEMIXER,AIR LOOP HVAC ZONE MIXER 2,NODE 173,NODE 165,FRONTLOUNGEFLR1 ZN SAC
! <#Nodes on Return Air Path>,<Number of Nodes>
! <Return Air Path Node>,<Node Type>,<Node Count>,<Node Name>,<AirLoopHVAC Name>
   #Nodes on Return Air Path,2
   Return Air Path Node,Outlet Node,1,NODE 165,FRONTLOUNGEFLR1 ZN SAC
   Return Air Path Node,Inlet Node,2,NODE 173,FRONTLOUNGEFLR1 ZN SAC
 Return Air Path,3,FRONTOFFICEFLR1 ZN SAC RETURN PATH,FRONTOFFICEFLR1 ZN SAC
   #Components on Return Air Path,1
   Return Air Path Component,1,AIRLOOPHVAC:ZONEMIXER,AIR LOOP HVAC ZONE MIXER 3,FRONTOFFICEFLR1 ZN SAC
     #Inlet Nodes on Return Air Path Component,1
     Return Air Path Component Nodes,1,AIRLOOPHVAC:ZONEMIXER,AIR LOOP HVAC ZONE MIXER 3,NODE 185,NODE 177,FRONTOFFICEFLR1 ZN SAC
! <#Nodes on Return Air Path>,<Number of Nodes>
! <Return Air Path Node>,<Node Type>,<Node Count>,<Node Name>,<AirLoopHVAC Name>
   #Nodes on Return Air Path,2
   Return Air Path Node,Outlet Node,1,NODE 177,FRONTOFFICEFLR1 ZN SAC
   Return Air Path Node,Inlet Node,2,NODE 185,FRONTOFFICEFLR1 ZN SAC
 Return Air Path,4,MEETINGROOMFLR1 ZN SAC RETURN PATH,MEETINGROOMFLR1 ZN SAC
   #Components on Return Air Path,1
   Return Air Path Component,1,AIRLOOPHVAC:ZONEMIXER,AIR LOOP HVAC ZONE MIXER 4,MEETINGROOMFLR1 ZN SAC
     #Inlet Nodes on Return Air Path Component,1
     Return Air Path Component Nodes,1,AIRLOOPHVAC:ZONEMIXER,AIR LOOP HVAC ZONE MIXER 4,NODE 197,NODE 189,MEETINGROOMFLR1 ZN SAC
! <#Nodes on Return Air Path>,<Number of Nodes>
! <Return Air Path Node>,<Node Type>,<Node Count>,<Node Name>,<AirLoopHVAC Name>
   #Nodes on Return Air Path,2
   Return Air Path Node,Outlet Node,1,NODE 189,MEETINGROOMFLR1 ZN SAC
   Return Air Path Node,Inlet Node,2,NODE 197,MEETINGROOMFLR1 ZN SAC
! ===============================================================
! #Outdoor Air Nodes,<Number of Outdoor Air Nodes>
 #Outdoor Air Nodes,44
! <Outdoor Air Node>,<NodeNumber>,<Node Name>
 Outdoor Air Node,347,CORRIDORFLR1 ZN PTAC OA NODE
 Outdoor Air Node,348,CORRIDORFLR2 ZN PTAC OA NODE
 Outdoor Air Node,349,CORRIDORFLR3 ZN PTAC OA NODE
 Outdoor Air Node,350,CORRIDORFLR4 ZN PTAC OA NODE
 Outdoor Air Node,351,GUESTROOM101 ZN PTAC OA NODE
 Outdoor Air Node,352,GUESTROOM102 ZN PTAC OA NODE
 Outdoor Air Node,353,GUESTROOM103 ZN PTAC OA NODE
 Outdoor Air Node,354,GUESTROOM104 ZN PTAC OA NODE
 Outdoor Air Node,355,GUESTROOM105 ZN PTAC OA NODE
 Outdoor Air Node,356,GUESTROOM201 ZN PTAC OA NODE
 Outdoor Air Node,357,GUESTROOM202_205 ZN PTAC OA NODE
 Outdoor Air Node,358,GUESTROOM206_208 ZN PTAC OA NODE
 Outdoor Air Node,359,GUESTROOM209_212 ZN PTAC OA NODE
 Outdoor Air Node,360,GUESTROOM213 ZN PTAC OA NODE
 Outdoor Air Node,361,GUESTROOM214 ZN PTAC OA NODE
 Outdoor Air Node,362,GUESTROOM215_218 ZN PTAC OA NODE
 Outdoor Air Node,363,GUESTROOM219 ZN PTAC OA NODE
 Outdoor Air Node,364,GUESTROOM220_223 ZN PTAC OA NODE
 Outdoor Air Node,365,GUESTROOM224 ZN PTAC OA NODE
 Outdoor Air Node,366,GUESTROOM301 ZN PTAC OA NODE
 Outdoor Air Node,367,GUESTROOM302_305 ZN PTAC OA NODE
 Outdoor Air Node,368,GUESTROOM306_308 ZN PTAC OA NODE
 Outdoor Air Node,369,GUESTROOM309_312 ZN PTAC OA NODE
 Outdoor Air Node,370,GUESTROOM313 ZN PTAC OA NODE
 Outdoor Air Node,371,GUESTROOM314 ZN PTAC OA NODE
 Outdoor Air Node,372,GUESTROOM315_318 ZN PTAC OA NODE
 Outdoor Air Node,373,GUESTROOM319 ZN PTAC OA NODE
 Outdoor Air Node,374,GUESTROOM320_323 ZN PTAC OA NODE
 Outdoor Air Node,375,GUESTROOM324 ZN PTAC OA NODE
 Outdoor Air Node,376,GUESTROOM401 ZN PTAC OA NODE
 Outdoor Air Node,377,GUESTROOM402_405 ZN PTAC OA NODE
 Outdoor Air Node,378,GUESTROOM406_408 ZN PTAC OA NODE
 Outdoor Air Node,379,GUESTROOM409_412 ZN PTAC OA NODE
 Outdoor Air Node,380,GUESTROOM413 ZN PTAC OA NODE
 Outdoor Air Node,381,GUESTROOM414 ZN PTAC OA NODE
 Outdoor Air Node,382,GUESTROOM415_418 ZN PTAC OA NODE
 Outdoor Air Node,383,GUESTROOM419 ZN PTAC OA NODE
 Outdoor Air Node,384,GUESTROOM420_423 ZN PTAC OA NODE
 Outdoor Air Node,385,GUESTROOM424 ZN PTAC OA NODE
 Outdoor Air Node,386,NODE 151
 Outdoor Air Node,387,NODE 167
 Outdoor Air Node,388,NODE 179
 Outdoor Air Node,389,NODE 191
 Outdoor Air Node,390,MODEL OUTDOOR AIR NODE
! ===============================================================
! <#Component Sets>,<Number of Component Sets>
 #Component Sets,254
! <Component Set>,<Component Set Count>,<Parent Object Type>,<Parent Object Name>,<Component Type>,<Component Name>,<Inlet Node ID>,<Outlet Node ID>,<Description>
 Component Set,1,BRANCH,EXERCISECENTERFLR1 ZN - EMPLOYEELOUNGEFLR1 ZN - RESTROOMFLR1 ZN SAC MAIN BRANCH,AIRLOOPHVAC:OUTDOORAIRSYSTEM,EXERCISECENTERFLR1 ZN - EMPLOYEELOUNGEFLR1 ZN - RESTROOMFLR1 ZN SAC OA SYS,NODE 146,NODE 156,Air Nodes
 Component Set,2,BRANCH,EXERCISECENTERFLR1 ZN - EMPLOYEELOUNGEFLR1 ZN - RESTROOMFLR1 ZN SAC MAIN BRANCH,COILSYSTEM:COOLING:DX,EXERCISECENTERFLR1 ZN - EMPLOYEELOUNGEFLR1 ZN - RESTROOMFLR1 ZN SAC 1SPD DX AC CLG COIL 53KBTU/HR 13.0SEER COILSYSTEM,NODE 156,NODE 155,Air Nodes
 Component Set,3,BRANCH,EXERCISECENTERFLR1 ZN - EMPLOYEELOUNGEFLR1 ZN - RESTROOMFLR1 ZN SAC MAIN BRANCH,COIL:HEATING:FUEL,EXERCISECENTERFLR1 ZN - EMPLOYEELOUNGEFLR1 ZN - RESTROOMFLR1 ZN SAC GAS HTG COIL,NODE 155,NODE 154,Air Nodes
 Component Set,4,BRANCH,EXERCISECENTERFLR1 ZN - EMPLOYEELOUNGEFLR1 ZN - RESTROOMFLR1 ZN SAC MAIN BRANCH,COIL:HEATING:FUEL,EXERCISECENTERFLR1 ZN - EMPLOYEELOUNGEFLR1 ZN - RESTROOMFLR1 ZN PSZ-AC GAS BACKUP HTG COIL,NODE 154,NODE 153,Air Nodes
 Component Set,5,BRANCH,EXERCISECENTERFLR1 ZN - EMPLOYEELOUNGEFLR1 ZN - RESTROOMFLR1 ZN SAC MAIN BRANCH,FAN:CONSTANTVOLUME,EXERCISECENTERFLR1 ZN - EMPLOYEELOUNGEFLR1 ZN - RESTROOMFLR1 ZN SAC FAN,NODE 153,NODE 147,Air Nodes
 Component Set,6,BRANCH,FRONTLOUNGEFLR1 ZN SAC MAIN BRANCH,AIRLOOPHVAC:OUTDOORAIRSYSTEM,FRONTLOUNGEFLR1 ZN SAC OA SYS,NODE 162,NODE 172,Air Nodes
 Component Set,7,BRANCH,FRONTLOUNGEFLR1 ZN SAC MAIN BRANCH,COILSYSTEM:COOLING:DX,FRONTLOUNGEFLR1 ZN SAC 1SPD DX AC CLG COIL 60KBTU/HR 13.0SEER COILSYSTEM,NODE 172,NODE 171,Air Nodes
 Component Set,8,BRANCH,FRONTLOUNGEFLR1 ZN SAC MAIN BRANCH,COIL:HEATING:FUEL,FRONTLOUNGEFLR1 ZN SAC GAS HTG COIL,NODE 171,NODE 170,Air Nodes
 Component Set,9,BRANCH,FRONTLOUNGEFLR1 ZN SAC MAIN BRANCH,COIL:HEATING:FUEL,FRONTLOUNGEFLR1 ZN PSZ-AC GAS BACKUP HTG COIL,NODE 170,NODE 169,Air Nodes
 Component Set,10,BRANCH,FRONTLOUNGEFLR1 ZN SAC MAIN BRANCH,FAN:CONSTANTVOLUME,FRONTLOUNGEFLR1 ZN SAC FAN,NODE 169,NODE 163,Air Nodes
 Component Set,11,BRANCH,FRONTOFFICEFLR1 ZN SAC MAIN BRANCH,AIRLOOPHVAC:OUTDOORAIRSYSTEM,FRONTOFFICEFLR1 ZN SAC OA SYS,NODE 174,NODE 184,Air Nodes
 Component Set,12,BRANCH,FRONTOFFICEFLR1 ZN SAC MAIN BRANCH,COILSYSTEM:COOLING:DX,FRONTOFFICEFLR1 ZN SAC 1SPD DX AC CLG COIL 24KBTU/HR 13.0SEER COILSYSTEM,NODE 184,NODE 183,Air Nodes
 Component Set,13,BRANCH,FRONTOFFICEFLR1 ZN SAC MAIN BRANCH,COIL:HEATING:FUEL,FRONTOFFICEFLR1 ZN SAC GAS HTG COIL,NODE 183,NODE 182,Air Nodes
 Component Set,14,BRANCH,FRONTOFFICEFLR1 ZN SAC MAIN BRANCH,COIL:HEATING:FUEL,FRONTOFFICEFLR1 ZN PSZ-AC GAS BACKUP HTG COIL,NODE 182,NODE 181,Air Nodes
 Component Set,15,BRANCH,FRONTOFFICEFLR1 ZN SAC MAIN BRANCH,FAN:CONSTANTVOLUME,FRONTOFFICEFLR1 ZN SAC FAN,NODE 181,NODE 175,Air Nodes
 Component Set,16,BRANCH,MEETINGROOMFLR1 ZN SAC MAIN BRANCH,AIRLOOPHVAC:OUTDOORAIRSYSTEM,MEETINGROOMFLR1 ZN SAC OA SYS,NODE 186,NODE 196,Air Nodes
 Component Set,17,BRANCH,MEETINGROOMFLR1 ZN SAC MAIN BRANCH,COILSYSTEM:COOLING:DX,MEETINGROOMFLR1 ZN SAC 1SPD DX AC CLG COIL 31KBTU/HR 13.0SEER COILSYSTEM,NODE 196,NODE 195,Air Nodes
 Component Set,18,BRANCH,MEETINGROOMFLR1 ZN SAC MAIN BRANCH,COIL:HEATING:FUEL,MEETINGROOMFLR1 ZN SAC GAS HTG COIL,NODE 195,NODE 194,Air Nodes
 Component Set,19,BRANCH,MEETINGROOMFLR1 ZN SAC MAIN BRANCH,COIL:HEATING:FUEL,MEETINGROOMFLR1 ZN PSZ-AC GAS BACKUP HTG COIL,NODE 194,NODE 193,Air Nodes
 Component Set,20,BRANCH,MEETINGROOMFLR1 ZN SAC MAIN BRANCH,FAN:CONSTANTVOLUME,MEETINGROOMFLR1 ZN SAC FAN,NODE 193,NODE 187,Air Nodes
 Component Set,21,BRANCH,LAUNDRY SERVICE WATER LOOP SUPPLY INLET BRANCH,PUMP:CONSTANTSPEED,SERVICE WATER LOOP PUMP 1,NODE 300,NODE 306,Water Nodes
 Component Set,22,BRANCH,LAUNDRY SERVICE WATER LOOP SUPPLY BRANCH 1,WATERHEATER:MIXED,200.0GAL NATURAL GAS WATER HEATER - 200KBTU/HR 0.807 THERM EFF,NODE 302,NODE 307,Use Side Water Nodes
 Component Set,23,BRANCH,LAUNDRY SERVICE WATER LOOP SUPPLY BRANCH 2,PIPE:ADIABATIC,PIPE ADIABATIC 6,NODE 308,NODE 309,Pipe Nodes
 Component Set,24,BRANCH,LAUNDRY SERVICE WATER LOOP SUPPLY OUTLET BRANCH,PIPE:ADIABATIC,PIPE ADIABATIC 8,NODE 311,NODE 301,Pipe Nodes
 Component Set,25,BRANCH,LAUNDRY SERVICE WATER LOOP DEMAND INLET BRANCH,PIPE:ADIABATIC,PIPE ADIABATIC 9,NODE 303,NODE 312,Pipe Nodes
 Component Set,26,BRANCH,LAUNDRY SERVICE WATER LOOP DEMAND BRANCH 1,PIPE:ADIABATIC,PIPE ADIABATIC 7,NODE 305,NODE 310,Pipe Nodes
 Component Set,27,BRANCH,LAUNDRY SERVICE WATER LOOP DEMAND BRANCH 2,WATERUSE:CONNECTIONS,WATER USE CONNECTIONS 36,NODE 314,NODE 315,DHW Nodes
 Component Set,28,BRANCH,LAUNDRY SERVICE WATER LOOP DEMAND BYPASS BRANCH,PIPE:ADIABATIC,LAUNDRY SERVICE WATER LOOP DEMAND BYPASS PIPE,LAUNDRY SERVICE WATER LOOP DEMAND BYPASS PIPE INLET NODE,LAUNDRY SERVICE WATER LOOP DEMAND BYPASS PIPE OUTLET NODE,Pipe Nodes
 Component Set,29,BRANCH,LAUNDRY SERVICE WATER LOOP DEMAND OUTLET BRANCH,PIPE:ADIABATIC,PIPE ADIABATIC 10,NODE 313,NODE 304,Pipe Nodes
 Component Set,30,BRANCH,MAIN SERVICE WATER LOOP SUPPLY INLET BRANCH,PUMP:CONSTANTSPEED,SERVICE WATER LOOP PUMP,NODE 216,NODE 222,Water Nodes
 Component Set,31,BRANCH,MAIN SERVICE WATER LOOP SUPPLY BRANCH 1,WATERHEATER:MIXED,300.0GAL NATURAL GAS WATER HEATER - 300KBTU/HR 0.806 THERM EFF,NODE 218,NODE 223,Use Side Water Nodes
 Component Set,32,BRANCH,MAIN SERVICE WATER LOOP SUPPLY BRANCH 2,PIPE:ADIABATIC,PIPE ADIABATIC 1,NODE 224,NODE 225,Pipe Nodes
 Component Set,33,BRANCH,MAIN SERVICE WATER LOOP SUPPLY OUTLET BRANCH,PIPE:ADIABATIC,PIPE ADIABATIC 3,NODE 227,NODE 217,Pipe Nodes
 Component Set,34,BRANCH,MAIN SERVICE WATER LOOP DEMAND INLET BRANCH,PIPE:ADIABATIC,PIPE ADIABATIC 4,NODE 219,NODE 228,Pipe Nodes
 Component Set,35,BRANCH,MAIN SERVICE WATER LOOP DEMAND BRANCH 1,PIPE:ADIABATIC,PIPE ADIABATIC 2,NODE 221,NODE 226,Pipe Nodes
 Component Set,36,BRANCH,MAIN SERVICE WATER LOOP DEMAND BRANCH 2,WATERUSE:CONNECTIONS,WATER USE CONNECTIONS 1,NODE 230,NODE 231,DHW Nodes
 Component Set,37,BRANCH,MAIN SERVICE WATER LOOP DEMAND BRANCH 3,WATERUSE:CONNECTIONS,WATER USE CONNECTIONS 2,NODE 232,NODE 233,DHW Nodes
 Component Set,38,BRANCH,MAIN SERVICE WATER LOOP DEMAND BRANCH 4,WATERUSE:CONNECTIONS,WATER USE CONNECTIONS 3,NODE 234,NODE 235,DHW Nodes
 Component Set,39,BRANCH,MAIN SERVICE WATER LOOP DEMAND BRANCH 5,WATERUSE:CONNECTIONS,WATER USE CONNECTIONS 4,NODE 236,NODE 237,DHW Nodes
 Component Set,40,BRANCH,MAIN SERVICE WATER LOOP DEMAND BRANCH 6,WATERUSE:CONNECTIONS,WATER USE CONNECTIONS 5,NODE 238,NODE 239,DHW Nodes
 Component Set,41,BRANCH,MAIN SERVICE WATER LOOP DEMAND BRANCH 7,WATERUSE:CONNECTIONS,WATER USE CONNECTIONS 6,NODE 240,NODE 241,DHW Nodes
 Component Set,42,BRANCH,MAIN SERVICE WATER LOOP DEMAND BRANCH 8,WATERUSE:CONNECTIONS,WATER USE CONNECTIONS 7,NODE 242,NODE 243,DHW Nodes
 Component Set,43,BRANCH,MAIN SERVICE WATER LOOP DEMAND BRANCH 9,WATERUSE:CONNECTIONS,WATER USE CONNECTIONS 8,NODE 244,NODE 245,DHW Nodes
 Component Set,44,BRANCH,MAIN SERVICE WATER LOOP DEMAND BRANCH 10,WATERUSE:CONNECTIONS,WATER USE CONNECTIONS 9,NODE 246,NODE 247,DHW Nodes
 Component Set,45,BRANCH,MAIN SERVICE WATER LOOP DEMAND BRANCH 11,WATERUSE:CONNECTIONS,WATER USE CONNECTIONS 10,NODE 248,NODE 249,DHW Nodes
 Component Set,46,BRANCH,MAIN SERVICE WATER LOOP DEMAND BRANCH 12,WATERUSE:CONNECTIONS,WATER USE CONNECTIONS 11,NODE 250,NODE 251,DHW Nodes
 Component Set,47,BRANCH,MAIN SERVICE WATER LOOP DEMAND BRANCH 13,WATERUSE:CONNECTIONS,WATER USE CONNECTIONS 12,NODE 252,NODE 253,DHW Nodes
 Component Set,48,BRANCH,MAIN SERVICE WATER LOOP DEMAND BRANCH 14,WATERUSE:CONNECTIONS,WATER USE CONNECTIONS 13,NODE 254,NODE 255,DHW Nodes
 Component Set,49,BRANCH,MAIN SERVICE WATER LOOP DEMAND BRANCH 15,WATERUSE:CONNECTIONS,WATER USE CONNECTIONS 14,NODE 256,NODE 257,DHW Nodes
 Component Set,50,BRANCH,MAIN SERVICE WATER LOOP DEMAND BRANCH 16,WATERUSE:CONNECTIONS,WATER USE CONNECTIONS 15,NODE 258,NODE 259,DHW Nodes
 Component Set,51,BRANCH,MAIN SERVICE WATER LOOP DEMAND BRANCH 17,WATERUSE:CONNECTIONS,WATER USE CONNECTIONS 16,NODE 260,NODE 261,DHW Nodes
 Component Set,52,BRANCH,MAIN SERVICE WATER LOOP DEMAND BRANCH 18,WATERUSE:CONNECTIONS,WATER USE CONNECTIONS 17,NODE 262,NODE 263,DHW Nodes
 Component Set,53,BRANCH,MAIN SERVICE WATER LOOP DEMAND BRANCH 19,WATERUSE:CONNECTIONS,WATER USE CONNECTIONS 18,NODE 264,NODE 265,DHW Nodes
 Component Set,54,BRANCH,MAIN SERVICE WATER LOOP DEMAND BRANCH 20,WATERUSE:CONNECTIONS,WATER USE CONNECTIONS 19,NODE 266,NODE 267,DHW Nodes
 Component Set,55,BRANCH,MAIN SERVICE WATER LOOP DEMAND BRANCH 21,WATERUSE:CONNECTIONS,WATER USE CONNECTIONS 20,NODE 268,NODE 269,DHW Nodes
 Component Set,56,BRANCH,MAIN SERVICE WATER LOOP DEMAND BRANCH 22,WATERUSE:CONNECTIONS,WATER USE CONNECTIONS 21,NODE 270,NODE 271,DHW Nodes
 Component Set,57,BRANCH,MAIN SERVICE WATER LOOP DEMAND BRANCH 23,WATERUSE:CONNECTIONS,WATER USE CONNECTIONS 22,NODE 272,NODE 273,DHW Nodes
 Component Set,58,BRANCH,MAIN SERVICE WATER LOOP DEMAND BRANCH 24,WATERUSE:CONNECTIONS,WATER USE CONNECTIONS 23,NODE 274,NODE 275,DHW Nodes
 Component Set,59,BRANCH,MAIN SERVICE WATER LOOP DEMAND BRANCH 25,WATERUSE:CONNECTIONS,WATER USE CONNECTIONS 24,NODE 276,NODE 277,DHW Nodes
 Component Set,60,BRANCH,MAIN SERVICE WATER LOOP DEMAND BRANCH 26,WATERUSE:CONNECTIONS,WATER USE CONNECTIONS 25,NODE 278,NODE 279,DHW Nodes
 Component Set,61,BRANCH,MAIN SERVICE WATER LOOP DEMAND BRANCH 27,WATERUSE:CONNECTIONS,WATER USE CONNECTIONS 26,NODE 280,NODE 281,DHW Nodes
 Component Set,62,BRANCH,MAIN SERVICE WATER LOOP DEMAND BRANCH 28,WATERUSE:CONNECTIONS,WATER USE CONNECTIONS 27,NODE 282,NODE 283,DHW Nodes
 Component Set,63,BRANCH,MAIN SERVICE WATER LOOP DEMAND BRANCH 29,WATERUSE:CONNECTIONS,WATER USE CONNECTIONS 28,NODE 284,NODE 285,DHW Nodes
 Component Set,64,BRANCH,MAIN SERVICE WATER LOOP DEMAND BRANCH 30,WATERUSE:CONNECTIONS,WATER USE CONNECTIONS 29,NODE 286,NODE 287,DHW Nodes
 Component Set,65,BRANCH,MAIN SERVICE WATER LOOP DEMAND BRANCH 31,WATERUSE:CONNECTIONS,WATER USE CONNECTIONS 30,NODE 288,NODE 289,DHW Nodes
 Component Set,66,BRANCH,MAIN SERVICE WATER LOOP DEMAND BRANCH 32,WATERUSE:CONNECTIONS,WATER USE CONNECTIONS 31,NODE 290,NODE 291,DHW Nodes
 Component Set,67,BRANCH,MAIN SERVICE WATER LOOP DEMAND BRANCH 33,WATERUSE:CONNECTIONS,WATER USE CONNECTIONS 32,NODE 292,NODE 293,DHW Nodes
 Component Set,68,BRANCH,MAIN SERVICE WATER LOOP DEMAND BRANCH 34,WATERUSE:CONNECTIONS,WATER USE CONNECTIONS 33,NODE 294,NODE 295,DHW Nodes
 Component Set,69,BRANCH,MAIN SERVICE WATER LOOP DEMAND BRANCH 35,WATERUSE:CONNECTIONS,WATER USE CONNECTIONS 34,NODE 296,NODE 297,DHW Nodes
 Component Set,70,BRANCH,MAIN SERVICE WATER LOOP DEMAND BRANCH 36,WATERUSE:CONNECTIONS,WATER USE CONNECTIONS 35,NODE 298,NODE 299,DHW Nodes
 Component Set,71,BRANCH,MAIN SERVICE WATER LOOP DEMAND BYPASS BRANCH,PIPE:ADIABATIC,MAIN SERVICE WATER LOOP DEMAND BYPASS PIPE,MAIN SERVICE WATER LOOP DEMAND BYPASS PIPE INLET NODE,MAIN SERVICE WATER LOOP DEMAND BYPASS PIPE OUTLET NODE,Pipe Nodes
 Component Set,72,BRANCH,MAIN SERVICE WATER LOOP DEMAND OUTLET BRANCH,PIPE:ADIABATIC,PIPE ADIABATIC 5,NODE 229,NODE 220,Pipe Nodes
 Component Set,73,ZONEHVAC:PACKAGEDTERMINALAIRCONDITIONER,CORRIDORFLR1 ZN PTAC,OUTDOORAIR:MIXER,CORRIDORFLR1 ZN PTAC OA MIXER,CORRIDORFLR1 ZN PTAC OA NODE,CORRIDORFLR1 ZN PTAC MIXED AIR NODE,Air Nodes
 Component Set,74,ZONEHVAC:PACKAGEDTERMINALAIRCONDITIONER,CORRIDORFLR2 ZN PTAC,OUTDOORAIR:MIXER,CORRIDORFLR2 ZN PTAC OA MIXER,CORRIDORFLR2 ZN PTAC OA NODE,CORRIDORFLR2 ZN PTAC MIXED AIR NODE,Air Nodes
 Component Set,75,ZONEHVAC:PACKAGEDTERMINALAIRCONDITIONER,CORRIDORFLR3 ZN PTAC,OUTDOORAIR:MIXER,CORRIDORFLR3 ZN PTAC OA MIXER,CORRIDORFLR3 ZN PTAC OA NODE,CORRIDORFLR3 ZN PTAC MIXED AIR NODE,Air Nodes
 Component Set,76,ZONEHVAC:PACKAGEDTERMINALAIRCONDITIONER,CORRIDORFLR4 ZN PTAC,OUTDOORAIR:MIXER,CORRIDORFLR4 ZN PTAC OA MIXER,CORRIDORFLR4 ZN PTAC OA NODE,CORRIDORFLR4 ZN PTAC MIXED AIR NODE,Air Nodes
 Component Set,77,ZONEHVAC:PACKAGEDTERMINALAIRCONDITIONER,GUESTROOM101 ZN PTAC,OUTDOORAIR:MIXER,GUESTROOM101 ZN PTAC OA MIXER,GUESTROOM101 ZN PTAC OA NODE,GUESTROOM101 ZN PTAC MIXED AIR NODE,Air Nodes
 Component Set,78,ZONEHVAC:PACKAGEDTERMINALAIRCONDITIONER,GUESTROOM102 ZN PTAC,OUTDOORAIR:MIXER,GUESTROOM102 ZN PTAC OA MIXER,GUESTROOM102 ZN PTAC OA NODE,GUESTROOM102 ZN PTAC MIXED AIR NODE,Air Nodes
 Component Set,79,ZONEHVAC:PACKAGEDTERMINALAIRCONDITIONER,GUESTROOM103 ZN PTAC,OUTDOORAIR:MIXER,GUESTROOM103 ZN PTAC OA MIXER,GUESTROOM103 ZN PTAC OA NODE,GUESTROOM103 ZN PTAC MIXED AIR NODE,Air Nodes
 Component Set,80,ZONEHVAC:PACKAGEDTERMINALAIRCONDITIONER,GUESTROOM104 ZN PTAC,OUTDOORAIR:MIXER,GUESTROOM104 ZN PTAC OA MIXER,GUESTROOM104 ZN PTAC OA NODE,GUESTROOM104 ZN PTAC MIXED AIR NODE,Air Nodes
 Component Set,81,ZONEHVAC:PACKAGEDTERMINALAIRCONDITIONER,GUESTROOM105 ZN PTAC,OUTDOORAIR:MIXER,GUESTROOM105 ZN PTAC OA MIXER,GUESTROOM105 ZN PTAC OA NODE,GUESTROOM105 ZN PTAC MIXED AIR NODE,Air Nodes
 Component Set,82,ZONEHVAC:PACKAGEDTERMINALAIRCONDITIONER,GUESTROOM201 ZN PTAC,OUTDOORAIR:MIXER,GUESTROOM201 ZN PTAC OA MIXER,GUESTROOM201 ZN PTAC OA NODE,GUESTROOM201 ZN PTAC MIXED AIR NODE,Air Nodes
 Component Set,83,ZONEHVAC:PACKAGEDTERMINALAIRCONDITIONER,GUESTROOM202_205 ZN PTAC,OUTDOORAIR:MIXER,GUESTROOM202_205 ZN PTAC OA MIXER,GUESTROOM202_205 ZN PTAC OA NODE,GUESTROOM202_205 ZN PTAC MIXED AIR NODE,Air Nodes
 Component Set,84,ZONEHVAC:PACKAGEDTERMINALAIRCONDITIONER,GUESTROOM206_208 ZN PTAC,OUTDOORAIR:MIXER,GUESTROOM206_208 ZN PTAC OA MIXER,GUESTROOM206_208 ZN PTAC OA NODE,GUESTROOM206_208 ZN PTAC MIXED AIR NODE,Air Nodes
 Component Set,85,ZONEHVAC:PACKAGEDTERMINALAIRCONDITIONER,GUESTROOM209_212 ZN PTAC,OUTDOORAIR:MIXER,GUESTROOM209_212 ZN PTAC OA MIXER,GUESTROOM209_212 ZN PTAC OA NODE,GUESTROOM209_212 ZN PTAC MIXED AIR NODE,Air Nodes
 Component Set,86,ZONEHVAC:PACKAGEDTERMINALAIRCONDITIONER,GUESTROOM213 ZN PTAC,OUTDOORAIR:MIXER,GUESTROOM213 ZN PTAC OA MIXER,GUESTROOM213 ZN PTAC OA NODE,GUESTROOM213 ZN PTAC MIXED AIR NODE,Air Nodes
 Component Set,87,ZONEHVAC:PACKAGEDTERMINALAIRCONDITIONER,GUESTROOM214 ZN PTAC,OUTDOORAIR:MIXER,GUESTROOM214 ZN PTAC OA MIXER,GUESTROOM214 ZN PTAC OA NODE,GUESTROOM214 ZN PTAC MIXED AIR NODE,Air Nodes
 Component Set,88,ZONEHVAC:PACKAGEDTERMINALAIRCONDITIONER,GUESTROOM215_218 ZN PTAC,OUTDOORAIR:MIXER,GUESTROOM215_218 ZN PTAC OA MIXER,GUESTROOM215_218 ZN PTAC OA NODE,GUESTROOM215_218 ZN PTAC MIXED AIR NODE,Air Nodes
 Component Set,89,ZONEHVAC:PACKAGEDTERMINALAIRCONDITIONER,GUESTROOM219 ZN PTAC,OUTDOORAIR:MIXER,GUESTROOM219 ZN PTAC OA MIXER,GUESTROOM219 ZN PTAC OA NODE,GUESTROOM219 ZN PTAC MIXED AIR NODE,Air Nodes
 Component Set,90,ZONEHVAC:PACKAGEDTERMINALAIRCONDITIONER,GUESTROOM220_223 ZN PTAC,OUTDOORAIR:MIXER,GUESTROOM220_223 ZN PTAC OA MIXER,GUESTROOM220_223 ZN PTAC OA NODE,GUESTROOM220_223 ZN PTAC MIXED AIR NODE,Air Nodes
 Component Set,91,ZONEHVAC:PACKAGEDTERMINALAIRCONDITIONER,GUESTROOM224 ZN PTAC,OUTDOORAIR:MIXER,GUESTROOM224 ZN PTAC OA MIXER,GUESTROOM224 ZN PTAC OA NODE,GUESTROOM224 ZN PTAC MIXED AIR NODE,Air Nodes
 Component Set,92,ZONEHVAC:PACKAGEDTERMINALAIRCONDITIONER,GUESTROOM301 ZN PTAC,OUTDOORAIR:MIXER,GUESTROOM301 ZN PTAC OA MIXER,GUESTROOM301 ZN PTAC OA NODE,GUESTROOM301 ZN PTAC MIXED AIR NODE,Air Nodes
 Component Set,93,ZONEHVAC:PACKAGEDTERMINALAIRCONDITIONER,GUESTROOM302_305 ZN PTAC,OUTDOORAIR:MIXER,GUESTROOM302_305 ZN PTAC OA MIXER,GUESTROOM302_305 ZN PTAC OA NODE,GUESTROOM302_305 ZN PTAC MIXED AIR NODE,Air Nodes
 Component Set,94,ZONEHVAC:PACKAGEDTERMINALAIRCONDITIONER,GUESTROOM306_308 ZN PTAC,OUTDOORAIR:MIXER,GUESTROOM306_308 ZN PTAC OA MIXER,GUESTROOM306_308 ZN PTAC OA NODE,GUESTROOM306_308 ZN PTAC MIXED AIR NODE,Air Nodes
 Component Set,95,ZONEHVAC:PACKAGEDTERMINALAIRCONDITIONER,GUESTROOM309_312 ZN PTAC,OUTDOORAIR:MIXER,GUESTROOM309_312 ZN PTAC OA MIXER,GUESTROOM309_312 ZN PTAC OA NODE,GUESTROOM309_312 ZN PTAC MIXED AIR NODE,Air Nodes
 Component Set,96,ZONEHVAC:PACKAGEDTERMINALAIRCONDITIONER,GUESTROOM313 ZN PTAC,OUTDOORAIR:MIXER,GUESTROOM313 ZN PTAC OA MIXER,GUESTROOM313 ZN PTAC OA NODE,GUESTROOM313 ZN PTAC MIXED AIR NODE,Air Nodes
 Component Set,97,ZONEHVAC:PACKAGEDTERMINALAIRCONDITIONER,GUESTROOM314 ZN PTAC,OUTDOORAIR:MIXER,GUESTROOM314 ZN PTAC OA MIXER,GUESTROOM314 ZN PTAC OA NODE,GUESTROOM314 ZN PTAC MIXED AIR NODE,Air Nodes
 Component Set,98,ZONEHVAC:PACKAGEDTERMINALAIRCONDITIONER,GUESTROOM315_318 ZN PTAC,OUTDOORAIR:MIXER,GUESTROOM315_318 ZN PTAC OA MIXER,GUESTROOM315_318 ZN PTAC OA NODE,GUESTROOM315_318 ZN PTAC MIXED AIR NODE,Air Nodes
 Component Set,99,ZONEHVAC:PACKAGEDTERMINALAIRCONDITIONER,GUESTROOM319 ZN PTAC,OUTDOORAIR:MIXER,GUESTROOM319 ZN PTAC OA MIXER,GUESTROOM319 ZN PTAC OA NODE,GUESTROOM319 ZN PTAC MIXED AIR NODE,Air Nodes
 Component Set,100,ZONEHVAC:PACKAGEDTERMINALAIRCONDITIONER,GUESTROOM320_323 ZN PTAC,OUTDOORAIR:MIXER,GUESTROOM320_323 ZN PTAC OA MIXER,GUESTROOM320_323 ZN PTAC OA NODE,GUESTROOM320_323 ZN PTAC MIXED AIR NODE,Air Nodes
 Component Set,101,ZONEHVAC:PACKAGEDTERMINALAIRCONDITIONER,GUESTROOM324 ZN PTAC,OUTDOORAIR:MIXER,GUESTROOM324 ZN PTAC OA MIXER,GUESTROOM324 ZN PTAC OA NODE,GUESTROOM324 ZN PTAC MIXED AIR NODE,Air Nodes
 Component Set,102,ZONEHVAC:PACKAGEDTERMINALAIRCONDITIONER,GUESTROOM401 ZN PTAC,OUTDOORAIR:MIXER,GUESTROOM401 ZN PTAC OA MIXER,GUESTROOM401 ZN PTAC OA NODE,GUESTROOM401 ZN PTAC MIXED AIR NODE,Air Nodes
 Component Set,103,ZONEHVAC:PACKAGEDTERMINALAIRCONDITIONER,GUESTROOM402_405 ZN PTAC,OUTDOORAIR:MIXER,GUESTROOM402_405 ZN PTAC OA MIXER,GUESTROOM402_405 ZN PTAC OA NODE,GUESTROOM402_405 ZN PTAC MIXED AIR NODE,Air Nodes
 Component Set,104,ZONEHVAC:PACKAGEDTERMINALAIRCONDITIONER,GUESTROOM406_408 ZN PTAC,OUTDOORAIR:MIXER,GUESTROOM406_408 ZN PTAC OA MIXER,GUESTROOM406_408 ZN PTAC OA NODE,GUESTROOM406_408 ZN PTAC MIXED AIR NODE,Air Nodes
 Component Set,105,ZONEHVAC:PACKAGEDTERMINALAIRCONDITIONER,GUESTROOM409_412 ZN PTAC,OUTDOORAIR:MIXER,GUESTROOM409_412 ZN PTAC OA MIXER,GUESTROOM409_412 ZN PTAC OA NODE,GUESTROOM409_412 ZN PTAC MIXED AIR NODE,Air Nodes
 Component Set,106,ZONEHVAC:PACKAGEDTERMINALAIRCONDITIONER,GUESTROOM413 ZN PTAC,OUTDOORAIR:MIXER,GUESTROOM413 ZN PTAC OA MIXER,GUESTROOM413 ZN PTAC OA NODE,GUESTROOM413 ZN PTAC MIXED AIR NODE,Air Nodes
 Component Set,107,ZONEHVAC:PACKAGEDTERMINALAIRCONDITIONER,GUESTROOM414 ZN PTAC,OUTDOORAIR:MIXER,GUESTROOM414 ZN PTAC OA MIXER,GUESTROOM414 ZN PTAC OA NODE,GUESTROOM414 ZN PTAC MIXED AIR NODE,Air Nodes
 Component Set,108,ZONEHVAC:PACKAGEDTERMINALAIRCONDITIONER,GUESTROOM415_418 ZN PTAC,OUTDOORAIR:MIXER,GUESTROOM415_418 ZN PTAC OA MIXER,GUESTROOM415_418 ZN PTAC OA NODE,GUESTROOM415_418 ZN PTAC MIXED AIR NODE,Air Nodes
 Component Set,109,ZONEHVAC:PACKAGEDTERMINALAIRCONDITIONER,GUESTROOM419 ZN PTAC,OUTDOORAIR:MIXER,GUESTROOM419 ZN PTAC OA MIXER,GUESTROOM419 ZN PTAC OA NODE,GUESTROOM419 ZN PTAC MIXED AIR NODE,Air Nodes
 Component Set,110,ZONEHVAC:PACKAGEDTERMINALAIRCONDITIONER,GUESTROOM420_423 ZN PTAC,OUTDOORAIR:MIXER,GUESTROOM420_423 ZN PTAC OA MIXER,GUESTROOM420_423 ZN PTAC OA NODE,GUESTROOM420_423 ZN PTAC MIXED AIR NODE,Air Nodes
 Component Set,111,ZONEHVAC:PACKAGEDTERMINALAIRCONDITIONER,GUESTROOM424 ZN PTAC,OUTDOORAIR:MIXER,GUESTROOM424 ZN PTAC OA MIXER,GUESTROOM424 ZN PTAC OA NODE,GUESTROOM424 ZN PTAC MIXED AIR NODE,Air Nodes
 Component Set,112,AIRLOOPHVAC:OUTDOORAIRSYSTEM,EXERCISECENTERFLR1 ZN - EMPLOYEELOUNGEFLR1 ZN - RESTROOMFLR1 ZN SAC OA SYS,OUTDOORAIR:MIXER,EXERCISECENTERFLR1 ZN - EMPLOYEELOUNGEFLR1 ZN - RESTROOMFLR1 ZN SAC OA SYS OUTDOOR AIR MIXER,NODE 151,NODE 156,Air Nodes
 Component Set,113,AIRLOOPHVAC:OUTDOORAIRSYSTEM,FRONTLOUNGEFLR1 ZN SAC OA SYS,OUTDOORAIR:MIXER,FRONTLOUNGEFLR1 ZN SAC OA SYS OUTDOOR AIR MIXER,NODE 167,NODE 172,Air Nodes
 Component Set,114,AIRLOOPHVAC:OUTDOORAIRSYSTEM,FRONTOFFICEFLR1 ZN SAC OA SYS,OUTDOORAIR:MIXER,FRONTOFFICEFLR1 ZN SAC OA SYS OUTDOOR AIR MIXER,NODE 179,NODE 184,Air Nodes
 Component Set,115,AIRLOOPHVAC:OUTDOORAIRSYSTEM,MEETINGROOMFLR1 ZN SAC OA SYS,OUTDOORAIR:MIXER,MEETINGROOMFLR1 ZN SAC OA SYS OUTDOOR AIR MIXER,NODE 191,NODE 196,Air Nodes
 Component Set,116,ZONEHVAC:PACKAGEDTERMINALAIRCONDITIONER,CORRIDORFLR1 ZN PTAC,FAN:CONSTANTVOLUME,CORRIDORFLR1 ZN PTAC FAN,CORRIDORFLR1 ZN PTAC HEATING COIL OUTLET NODE,NODE 139,Air Nodes
 Component Set,117,ZONEHVAC:PACKAGEDTERMINALAIRCONDITIONER,CORRIDORFLR2 ZN PTAC,FAN:CONSTANTVOLUME,CORRIDORFLR2 ZN PTAC FAN,CORRIDORFLR2 ZN PTAC HEATING COIL OUTLET NODE,NODE 141,Air Nodes
 Component Set,118,ZONEHVAC:PACKAGEDTERMINALAIRCONDITIONER,CORRIDORFLR3 ZN PTAC,FAN:CONSTANTVOLUME,CORRIDORFLR3 ZN PTAC FAN,CORRIDORFLR3 ZN PTAC HEATING COIL OUTLET NODE,NODE 143,Air Nodes
 Component Set,119,ZONEHVAC:PACKAGEDTERMINALAIRCONDITIONER,CORRIDORFLR4 ZN PTAC,FAN:CONSTANTVOLUME,CORRIDORFLR4 ZN PTAC FAN,CORRIDORFLR4 ZN PTAC HEATING COIL OUTLET NODE,NODE 145,Air Nodes
 Component Set,120,ZONEHVAC:UNITHEATER,FRONTSTAIRSFLR1 ZN UNITHEATER,FAN:CONSTANTVOLUME,FRONTSTAIRSFLR1 ZN UNITHEATER FAN,NODE 200,FRONTSTAIRSFLR1 ZN UNITHEATER FAN OUTLET NODE,Air Nodes
 Component Set,121,ZONEHVAC:UNITHEATER,FRONTSTAIRSFLR2 ZN UNITHEATER,FAN:CONSTANTVOLUME,FRONTSTAIRSFLR2 ZN UNITHEATER FAN,NODE 202,FRONTSTAIRSFLR2 ZN UNITHEATER FAN OUTLET NODE,Air Nodes
 Component Set,122,ZONEHVAC:UNITHEATER,FRONTSTAIRSFLR3 ZN UNITHEATER,FAN:CONSTANTVOLUME,FRONTSTAIRSFLR3 ZN UNITHEATER FAN,NODE 204,FRONTSTAIRSFLR3 ZN UNITHEATER FAN OUTLET NODE,Air Nodes
 Component Set,123,ZONEHVAC:UNITHEATER,FRONTSTAIRSFLR4 ZN UNITHEATER,FAN:CONSTANTVOLUME,FRONTSTAIRSFLR4 ZN UNITHEATER FAN,NODE 206,FRONTSTAIRSFLR4 ZN UNITHEATER FAN OUTLET NODE,Air Nodes
 Component Set,124,ZONEHVAC:PACKAGEDTERMINALAIRCONDITIONER,GUESTROOM101 ZN PTAC,FAN:CONSTANTVOLUME,GUESTROOM101 ZN PTAC FAN,GUESTROOM101 ZN PTAC HEATING COIL OUTLET NODE,NODE 69,Air Nodes
 Component Set,125,ZONEHVAC:PACKAGEDTERMINALAIRCONDITIONER,GUESTROOM102 ZN PTAC,FAN:CONSTANTVOLUME,GUESTROOM102 ZN PTAC FAN,GUESTROOM102 ZN PTAC HEATING COIL OUTLET NODE,NODE 71,Air Nodes
 Component Set,126,ZONEHVAC:PACKAGEDTERMINALAIRCONDITIONER,GUESTROOM103 ZN PTAC,FAN:CONSTANTVOLUME,GUESTROOM103 ZN PTAC FAN,GUESTROOM103 ZN PTAC HEATING COIL OUTLET NODE,NODE 73,Air Nodes
 Component Set,127,ZONEHVAC:PACKAGEDTERMINALAIRCONDITIONER,GUESTROOM104 ZN PTAC,FAN:CONSTANTVOLUME,GUESTROOM104 ZN PTAC FAN,GUESTROOM104 ZN PTAC HEATING COIL OUTLET NODE,NODE 75,Air Nodes
 Component Set,128,ZONEHVAC:PACKAGEDTERMINALAIRCONDITIONER,GUESTROOM105 ZN PTAC,FAN:CONSTANTVOLUME,GUESTROOM105 ZN PTAC FAN,GUESTROOM105 ZN PTAC HEATING COIL OUTLET NODE,NODE 77,Air Nodes
 Component Set,129,ZONEHVAC:PACKAGEDTERMINALAIRCONDITIONER,GUESTROOM201 ZN PTAC,FAN:CONSTANTVOLUME,GUESTROOM201 ZN PTAC FAN,GUESTROOM201 ZN PTAC HEATING COIL OUTLET NODE,NODE 79,Air Nodes
 Component Set,130,ZONEHVAC:PACKAGEDTERMINALAIRCONDITIONER,GUESTROOM202_205 ZN PTAC,FAN:CONSTANTVOLUME,GUESTROOM202_205 ZN PTAC FAN,GUESTROOM202_205 ZN PTAC HEATING COIL OUTLET NODE,NODE 81,Air Nodes
 Component Set,131,ZONEHVAC:PACKAGEDTERMINALAIRCONDITIONER,GUESTROOM206_208 ZN PTAC,FAN:CONSTANTVOLUME,GUESTROOM206_208 ZN PTAC FAN,GUESTROOM206_208 ZN PTAC HEATING COIL OUTLET NODE,NODE 83,Air Nodes
 Component Set,132,ZONEHVAC:PACKAGEDTERMINALAIRCONDITIONER,GUESTROOM209_212 ZN PTAC,FAN:CONSTANTVOLUME,GUESTROOM209_212 ZN PTAC FAN,GUESTROOM209_212 ZN PTAC HEATING COIL OUTLET NODE,NODE 85,Air Nodes
 Component Set,133,ZONEHVAC:PACKAGEDTERMINALAIRCONDITIONER,GUESTROOM213 ZN PTAC,FAN:CONSTANTVOLUME,GUESTROOM213 ZN PTAC FAN,GUESTROOM213 ZN PTAC HEATING COIL OUTLET NODE,NODE 87,Air Nodes
 Component Set,134,ZONEHVAC:PACKAGEDTERMINALAIRCONDITIONER,GUESTROOM214 ZN PTAC,FAN:CONSTANTVOLUME,GUESTROOM214 ZN PTAC FAN,GUESTROOM214 ZN PTAC HEATING COIL OUTLET NODE,NODE 89,Air Nodes
 Component Set,135,ZONEHVAC:PACKAGEDTERMINALAIRCONDITIONER,GUESTROOM215_218 ZN PTAC,FAN:CONSTANTVOLUME,GUESTROOM215_218 ZN PTAC FAN,GUESTROOM215_218 ZN PTAC HEATING COIL OUTLET NODE,NODE 91,Air Nodes
 Component Set,136,ZONEHVAC:PACKAGEDTERMINALAIRCONDITIONER,GUESTROOM219 ZN PTAC,FAN:CONSTANTVOLUME,GUESTROOM219 ZN PTAC FAN,GUESTROOM219 ZN PTAC HEATING COIL OUTLET NODE,NODE 93,Air Nodes
 Component Set,137,ZONEHVAC:PACKAGEDTERMINALAIRCONDITIONER,GUESTROOM220_223 ZN PTAC,FAN:CONSTANTVOLUME,GUESTROOM220_223 ZN PTAC FAN,GUESTROOM220_223 ZN PTAC HEATING COIL OUTLET NODE,NODE 95,Air Nodes
 Component Set,138,ZONEHVAC:PACKAGEDTERMINALAIRCONDITIONER,GUESTROOM224 ZN PTAC,FAN:CONSTANTVOLUME,GUESTROOM224 ZN PTAC FAN,GUESTROOM224 ZN PTAC HEATING COIL OUTLET NODE,NODE 97,Air Nodes
 Component Set,139,ZONEHVAC:PACKAGEDTERMINALAIRCONDITIONER,GUESTROOM301 ZN PTAC,FAN:CONSTANTVOLUME,GUESTROOM301 ZN PTAC FAN,GUESTROOM301 ZN PTAC HEATING COIL OUTLET NODE,NODE 99,Air Nodes
 Component Set,140,ZONEHVAC:PACKAGEDTERMINALAIRCONDITIONER,GUESTROOM302_305 ZN PTAC,FAN:CONSTANTVOLUME,GUESTROOM302_305 ZN PTAC FAN,GUESTROOM302_305 ZN PTAC HEATING COIL OUTLET NODE,NODE 101,Air Nodes
 Component Set,141,ZONEHVAC:PACKAGEDTERMINALAIRCONDITIONER,GUESTROOM306_308 ZN PTAC,FAN:CONSTANTVOLUME,GUESTROOM306_308 ZN PTAC FAN,GUESTROOM306_308 ZN PTAC HEATING COIL OUTLET NODE,NODE 103,Air Nodes
 Component Set,142,ZONEHVAC:PACKAGEDTERMINALAIRCONDITIONER,GUESTROOM309_312 ZN PTAC,FAN:CONSTANTVOLUME,GUESTROOM309_312 ZN PTAC FAN,GUESTROOM309_312 ZN PTAC HEATING COIL OUTLET NODE,NODE 105,Air Nodes
 Component Set,143,ZONEHVAC:PACKAGEDTERMINALAIRCONDITIONER,GUESTROOM313 ZN PTAC,FAN:CONSTANTVOLUME,GUESTROOM313 ZN PTAC FAN,GUESTROOM313 ZN PTAC HEATING COIL OUTLET NODE,NODE 107,Air Nodes
 Component Set,144,ZONEHVAC:PACKAGEDTERMINALAIRCONDITIONER,GUESTROOM314 ZN PTAC,FAN:CONSTANTVOLUME,GUESTROOM314 ZN PTAC FAN,GUESTROOM314 ZN PTAC HEATING COIL OUTLET NODE,NODE 109,Air Nodes
 Component Set,145,ZONEHVAC:PACKAGEDTERMINALAIRCONDITIONER,GUESTROOM315_318 ZN PTAC,FAN:CONSTANTVOLUME,GUESTROOM315_318 ZN PTAC FAN,GUESTROOM315_318 ZN PTAC HEATING COIL OUTLET NODE,NODE 111,Air Nodes
 Component Set,146,ZONEHVAC:PACKAGEDTERMINALAIRCONDITIONER,GUESTROOM319 ZN PTAC,FAN:CONSTANTVOLUME,GUESTROOM319 ZN PTAC FAN,GUESTROOM319 ZN PTAC HEATING COIL OUTLET NODE,NODE 113,Air Nodes
 Component Set,147,ZONEHVAC:PACKAGEDTERMINALAIRCONDITIONER,GUESTROOM320_323 ZN PTAC,FAN:CONSTANTVOLUME,GUESTROOM320_323 ZN PTAC FAN,GUESTROOM320_323 ZN PTAC HEATING COIL OUTLET NODE,NODE 115,Air Nodes
 Component Set,148,ZONEHVAC:PACKAGEDTERMINALAIRCONDITIONER,GUESTROOM324 ZN PTAC,FAN:CONSTANTVOLUME,GUESTROOM324 ZN PTAC FAN,GUESTROOM324 ZN PTAC HEATING COIL OUTLET NODE,NODE 117,Air Nodes
 Component Set,149,ZONEHVAC:PACKAGEDTERMINALAIRCONDITIONER,GUESTROOM401 ZN PTAC,FAN:CONSTANTVOLUME,GUESTROOM401 ZN PTAC FAN,GUESTROOM401 ZN PTAC HEATING COIL OUTLET NODE,NODE 119,Air Nodes
 Component Set,150,ZONEHVAC:PACKAGEDTERMINALAIRCONDITIONER,GUESTROOM402_405 ZN PTAC,FAN:CONSTANTVOLUME,GUESTROOM402_405 ZN PTAC FAN,GUESTROOM402_405 ZN PTAC HEATING COIL OUTLET NODE,NODE 121,Air Nodes
 Component Set,151,ZONEHVAC:PACKAGEDTERMINALAIRCONDITIONER,GUESTROOM406_408 ZN PTAC,FAN:CONSTANTVOLUME,GUESTROOM406_408 ZN PTAC FAN,GUESTROOM406_408 ZN PTAC HEATING COIL OUTLET NODE,NODE 123,Air Nodes
 Component Set,152,ZONEHVAC:PACKAGEDTERMINALAIRCONDITIONER,GUESTROOM409_412 ZN PTAC,FAN:CONSTANTVOLUME,GUESTROOM409_412 ZN PTAC FAN,GUESTROOM409_412 ZN PTAC HEATING COIL OUTLET NODE,NODE 125,Air Nodes
 Component Set,153,ZONEHVAC:PACKAGEDTERMINALAIRCONDITIONER,GUESTROOM413 ZN PTAC,FAN:CONSTANTVOLUME,GUESTROOM413 ZN PTAC FAN,GUESTROOM413 ZN PTAC HEATING COIL OUTLET NODE,NODE 127,Air Nodes
 Component Set,154,ZONEHVAC:PACKAGEDTERMINALAIRCONDITIONER,GUESTROOM414 ZN PTAC,FAN:CONSTANTVOLUME,GUESTROOM414 ZN PTAC FAN,GUESTROOM414 ZN PTAC HEATING COIL OUTLET NODE,NODE 129,Air Nodes
 Component Set,155,ZONEHVAC:PACKAGEDTERMINALAIRCONDITIONER,GUESTROOM415_418 ZN PTAC,FAN:CONSTANTVOLUME,GUESTROOM415_418 ZN PTAC FAN,GUESTROOM415_418 ZN PTAC HEATING COIL OUTLET NODE,NODE 131,Air Nodes
 Component Set,156,ZONEHVAC:PACKAGEDTERMINALAIRCONDITIONER,GUESTROOM419 ZN PTAC,FAN:CONSTANTVOLUME,GUESTROOM419 ZN PTAC FAN,GUESTROOM419 ZN PTAC HEATING COIL OUTLET NODE,NODE 133,Air Nodes
 Component Set,157,ZONEHVAC:PACKAGEDTERMINALAIRCONDITIONER,GUESTROOM420_423 ZN PTAC,FAN:CONSTANTVOLUME,GUESTROOM420_423 ZN PTAC FAN,GUESTROOM420_423 ZN PTAC HEATING COIL OUTLET NODE,NODE 135,Air Nodes
 Component Set,158,ZONEHVAC:PACKAGEDTERMINALAIRCONDITIONER,GUESTROOM424 ZN PTAC,FAN:CONSTANTVOLUME,GUESTROOM424 ZN PTAC FAN,GUESTROOM424 ZN PTAC HEATING COIL OUTLET NODE,NODE 137,Air Nodes
 Component Set,159,ZONEHVAC:UNITHEATER,MECHANICALROOMFLR1 ZN UNITHEATER,FAN:CONSTANTVOLUME,MECHANICALROOMFLR1 ZN UNITHEATER FAN,NODE 198,MECHANICALROOMFLR1 ZN UNITHEATER FAN OUTLET NODE,Air Nodes
 Component Set,160,ZONEHVAC:UNITHEATER,REARSTAIRSFLR1 ZN UNITHEATER,FAN:CONSTANTVOLUME,REARSTAIRSFLR1 ZN UNITHEATER FAN,NODE 208,REARSTAIRSFLR1 ZN UNITHEATER FAN OUTLET NODE,Air Nodes
 Component Set,161,ZONEHVAC:UNITHEATER,REARSTAIRSFLR2 ZN UNITHEATER,FAN:CONSTANTVOLUME,REARSTAIRSFLR2 ZN UNITHEATER FAN,NODE 210,REARSTAIRSFLR2 ZN UNITHEATER FAN OUTLET NODE,Air Nodes
 Component Set,162,ZONEHVAC:UNITHEATER,REARSTAIRSFLR3 ZN UNITHEATER,FAN:CONSTANTVOLUME,REARSTAIRSFLR3 ZN UNITHEATER FAN,NODE 212,REARSTAIRSFLR3 ZN UNITHEATER FAN OUTLET NODE,Air Nodes
 Component Set,163,ZONEHVAC:UNITHEATER,REARSTAIRSFLR4 ZN UNITHEATER,FAN:CONSTANTVOLUME,REARSTAIRSFLR4 ZN UNITHEATER FAN,NODE 214,REARSTAIRSFLR4 ZN UNITHEATER FAN OUTLET NODE,Air Nodes
 Component Set,164,ZONEHVAC:PACKAGEDTERMINALAIRCONDITIONER,CORRIDORFLR1 ZN PTAC,COIL:HEATING:ELECTRIC,CORRIDORFLR1 ZN PTAC ELECTRIC HTG COIL,CORRIDORFLR1 ZN PTAC COOLING COIL OUTLET NODE,CORRIDORFLR1 ZN PTAC HEATING COIL OUTLET NODE,Air Nodes
 Component Set,165,ZONEHVAC:PACKAGEDTERMINALAIRCONDITIONER,CORRIDORFLR2 ZN PTAC,COIL:HEATING:ELECTRIC,CORRIDORFLR2 ZN PTAC ELECTRIC HTG COIL,CORRIDORFLR2 ZN PTAC COOLING COIL OUTLET NODE,CORRIDORFLR2 ZN PTAC HEATING COIL OUTLET NODE,Air Nodes
 Component Set,166,ZONEHVAC:PACKAGEDTERMINALAIRCONDITIONER,CORRIDORFLR3 ZN PTAC,COIL:HEATING:ELECTRIC,CORRIDORFLR3 ZN PTAC ELECTRIC HTG COIL,CORRIDORFLR3 ZN PTAC COOLING COIL OUTLET NODE,CORRIDORFLR3 ZN PTAC HEATING COIL OUTLET NODE,Air Nodes
 Component Set,167,ZONEHVAC:PACKAGEDTERMINALAIRCONDITIONER,CORRIDORFLR4 ZN PTAC,COIL:HEATING:ELECTRIC,CORRIDORFLR4 ZN PTAC ELECTRIC HTG COIL,CORRIDORFLR4 ZN PTAC COOLING COIL OUTLET NODE,CORRIDORFLR4 ZN PTAC HEATING COIL OUTLET NODE,Air Nodes
 Component Set,168,ZONEHVAC:UNITHEATER,FRONTSTAIRSFLR1 ZN UNITHEATER,COIL:HEATING:ELECTRIC,FRONTSTAIRSFLR1 ZN UNITHEATER ELECTRIC HTG COIL,FRONTSTAIRSFLR1 ZN UNITHEATER FAN OUTLET NODE,NODE 201,Air Nodes
 Component Set,169,ZONEHVAC:UNITHEATER,FRONTSTAIRSFLR2 ZN UNITHEATER,COIL:HEATING:ELECTRIC,FRONTSTAIRSFLR2 ZN UNITHEATER ELECTRIC HTG COIL,FRONTSTAIRSFLR2 ZN UNITHEATER FAN OUTLET NODE,NODE 203,Air Nodes
 Component Set,170,ZONEHVAC:UNITHEATER,FRONTSTAIRSFLR3 ZN UNITHEATER,COIL:HEATING:ELECTRIC,FRONTSTAIRSFLR3 ZN UNITHEATER ELECTRIC HTG COIL,FRONTSTAIRSFLR3 ZN UNITHEATER FAN OUTLET NODE,NODE 205,Air Nodes
 Component Set,171,ZONEHVAC:UNITHEATER,FRONTSTAIRSFLR4 ZN UNITHEATER,COIL:HEATING:ELECTRIC,FRONTSTAIRSFLR4 ZN UNITHEATER ELECTRIC HTG COIL,FRONTSTAIRSFLR4 ZN UNITHEATER FAN OUTLET NODE,NODE 207,Air Nodes
 Component Set,172,ZONEHVAC:PACKAGEDTERMINALAIRCONDITIONER,GUESTROOM101 ZN PTAC,COIL:HEATING:ELECTRIC,GUESTROOM101 ZN PTAC ELECTRIC HTG COIL,GUESTROOM101 ZN PTAC COOLING COIL OUTLET NODE,GUESTROOM101 ZN PTAC HEATING COIL OUTLET NODE,Air Nodes
[...]
 Non-Parent Node Connection,NODE 171,COIL:HEATING:FUEL,FRONTLOUNGEFLR1 ZN SAC GAS HTG COIL,Inlet,1
 Non-Parent Node Connection,NODE 170,COIL:HEATING:FUEL,FRONTLOUNGEFLR1 ZN SAC GAS HTG COIL,Outlet,1
 Non-Parent Node Connection,NODE 170,COIL:HEATING:FUEL,FRONTLOUNGEFLR1 ZN SAC GAS HTG COIL,Sensor,1
 Non-Parent Node Connection,NODE 170,COIL:HEATING:FUEL,FRONTLOUNGEFLR1 ZN PSZ-AC GAS BACKUP HTG COIL,Inlet,1
 Non-Parent Node Connection,NODE 169,COIL:HEATING:FUEL,FRONTLOUNGEFLR1 ZN PSZ-AC GAS BACKUP HTG COIL,Outlet,1
 Non-Parent Node Connection,NODE 169,COIL:HEATING:FUEL,FRONTLOUNGEFLR1 ZN PSZ-AC GAS BACKUP HTG COIL,Sensor,1
 Non-Parent Node Connection,NODE 183,COIL:HEATING:FUEL,FRONTOFFICEFLR1 ZN SAC GAS HTG COIL,Inlet,1
 Non-Parent Node Connection,NODE 182,COIL:HEATING:FUEL,FRONTOFFICEFLR1 ZN SAC GAS HTG COIL,Outlet,1
 Non-Parent Node Connection,NODE 182,COIL:HEATING:FUEL,FRONTOFFICEFLR1 ZN SAC GAS HTG COIL,Sensor,1
 Non-Parent Node Connection,NODE 182,COIL:HEATING:FUEL,FRONTOFFICEFLR1 ZN PSZ-AC GAS BACKUP HTG COIL,Inlet,1
 Non-Parent Node Connection,NODE 181,COIL:HEATING:FUEL,FRONTOFFICEFLR1 ZN PSZ-AC GAS BACKUP HTG COIL,Outlet,1
 Non-Parent Node Connection,NODE 181,COIL:HEATING:FUEL,FRONTOFFICEFLR1 ZN PSZ-AC GAS BACKUP HTG COIL,Sensor,1
 Non-Parent Node Connection,NODE 195,COIL:HEATING:FUEL,MEETINGROOMFLR1 ZN SAC GAS HTG COIL,Inlet,1
 Non-Parent Node Connection,NODE 194,COIL:HEATING:FUEL,MEETINGROOMFLR1 ZN SAC GAS HTG COIL,Outlet,1
 Non-Parent Node Connection,NODE 194,COIL:HEATING:FUEL,MEETINGROOMFLR1 ZN SAC GAS HTG COIL,Sensor,1
 Non-Parent Node Connection,NODE 194,COIL:HEATING:FUEL,MEETINGROOMFLR1 ZN PSZ-AC GAS BACKUP HTG COIL,Inlet,1
 Non-Parent Node Connection,NODE 193,COIL:HEATING:FUEL,MEETINGROOMFLR1 ZN PSZ-AC GAS BACKUP HTG COIL,Outlet,1
 Non-Parent Node Connection,NODE 193,COIL:HEATING:FUEL,MEETINGROOMFLR1 ZN PSZ-AC GAS BACKUP HTG COIL,Sensor,1
 Non-Parent Node Connection,CORRIDORFLR1 ZN PTAC MIXED AIR NODE,COIL:COOLING:DX:SINGLESPEED,CORRIDORFLR1 ZN PTAC 1SPD DX AC CLG COIL 9KBTU/HR 11.1EER,Inlet,1
 Non-Parent Node Connection,CORRIDORFLR1 ZN PTAC COOLING COIL OUTLET NODE,COIL:COOLING:DX:SINGLESPEED,CORRIDORFLR1 ZN PTAC 1SPD DX AC CLG COIL 9KBTU/HR 11.1EER,Outlet,1
 Non-Parent Node Connection,CORRIDORFLR2 ZN PTAC MIXED AIR NODE,COIL:COOLING:DX:SINGLESPEED,CORRIDORFLR2 ZN PTAC 1SPD DX AC CLG COIL 17KBTU/HR 9.3EER,Inlet,1
 Non-Parent Node Connection,CORRIDORFLR2 ZN PTAC COOLING COIL OUTLET NODE,COIL:COOLING:DX:SINGLESPEED,CORRIDORFLR2 ZN PTAC 1SPD DX AC CLG COIL 17KBTU/HR 9.3EER,Outlet,1
 Non-Parent Node Connection,CORRIDORFLR3 ZN PTAC MIXED AIR NODE,COIL:COOLING:DX:SINGLESPEED,CORRIDORFLR3 ZN PTAC 1SPD DX AC CLG COIL 10KBTU/HR 10.8EER,Inlet,1
 Non-Parent Node Connection,CORRIDORFLR3 ZN PTAC COOLING COIL OUTLET NODE,COIL:COOLING:DX:SINGLESPEED,CORRIDORFLR3 ZN PTAC 1SPD DX AC CLG COIL 10KBTU/HR 10.8EER,Outlet,1
 Non-Parent Node Connection,CORRIDORFLR4 ZN PTAC MIXED AIR NODE,COIL:COOLING:DX:SINGLESPEED,CORRIDORFLR4 ZN PTAC 1SPD DX AC CLG COIL 17KBTU/HR 9.3EER,Inlet,1
 Non-Parent Node Connection,CORRIDORFLR4 ZN PTAC COOLING COIL OUTLET NODE,COIL:COOLING:DX:SINGLESPEED,CORRIDORFLR4 ZN PTAC 1SPD DX AC CLG COIL 17KBTU/HR 9.3EER,Outlet,1
 Non-Parent Node Connection,GUESTROOM101 ZN PTAC MIXED AIR NODE,COIL:COOLING:DX:SINGLESPEED,GUESTROOM101 ZN PTAC 1SPD DX AC CLG COIL 2KBTU/HR 11.7EER,Inlet,1
 Non-Parent Node Connection,GUESTROOM101 ZN PTAC COOLING COIL OUTLET NODE,COIL:COOLING:DX:SINGLESPEED,GUESTROOM101 ZN PTAC 1SPD DX AC CLG COIL 2KBTU/HR 11.7EER,Outlet,1
 Non-Parent Node Connection,GUESTROOM102 ZN PTAC MIXED AIR NODE,COIL:COOLING:DX:SINGLESPEED,GUESTROOM102 ZN PTAC 1SPD DX AC CLG COIL 1KBTU/HR 11.7EER,Inlet,1
 Non-Parent Node Connection,GUESTROOM102 ZN PTAC COOLING COIL OUTLET NODE,COIL:COOLING:DX:SINGLESPEED,GUESTROOM102 ZN PTAC 1SPD DX AC CLG COIL 1KBTU/HR 11.7EER,Outlet,1
 Non-Parent Node Connection,GUESTROOM103 ZN PTAC MIXED AIR NODE,COIL:COOLING:DX:SINGLESPEED,GUESTROOM103 ZN PTAC 1SPD DX AC CLG COIL 9KBTU/HR 11.0EER,Inlet,1
 Non-Parent Node Connection,GUESTROOM103 ZN PTAC COOLING COIL OUTLET NODE,COIL:COOLING:DX:SINGLESPEED,GUESTROOM103 ZN PTAC 1SPD DX AC CLG COIL 9KBTU/HR 11.0EER,Outlet,1
 Non-Parent Node Connection,GUESTROOM104 ZN PTAC MIXED AIR NODE,COIL:COOLING:DX:SINGLESPEED,GUESTROOM104 ZN PTAC 1SPD DX AC CLG COIL 10KBTU/HR 10.7EER,Inlet,1
 Non-Parent Node Connection,GUESTROOM104 ZN PTAC COOLING COIL OUTLET NODE,COIL:COOLING:DX:SINGLESPEED,GUESTROOM104 ZN PTAC 1SPD DX AC CLG COIL 10KBTU/HR 10.7EER,Outlet,1
 Non-Parent Node Connection,GUESTROOM105 ZN PTAC MIXED AIR NODE,COIL:COOLING:DX:SINGLESPEED,GUESTROOM105 ZN PTAC 1SPD DX AC CLG COIL 14KBTU/HR 9.6EER,Inlet,1
 Non-Parent Node Connection,GUESTROOM105 ZN PTAC COOLING COIL OUTLET NODE,COIL:COOLING:DX:SINGLESPEED,GUESTROOM105 ZN PTAC 1SPD DX AC CLG COIL 14KBTU/HR 9.6EER,Outlet,1
 Non-Parent Node Connection,GUESTROOM201 ZN PTAC MIXED AIR NODE,COIL:COOLING:DX:SINGLESPEED,GUESTROOM201 ZN PTAC 1SPD DX AC CLG COIL 4KBTU/HR 11.7EER,Inlet,1
 Non-Parent Node Connection,GUESTROOM201 ZN PTAC COOLING COIL OUTLET NODE,COIL:COOLING:DX:SINGLESPEED,GUESTROOM201 ZN PTAC 1SPD DX AC CLG COIL 4KBTU/HR 11.7EER,Outlet,1
 Non-Parent Node Connection,GUESTROOM202_205 ZN PTAC MIXED AIR NODE,COIL:COOLING:DX:SINGLESPEED,GUESTROOM202_205 ZN PTAC 1SPD DX AC CLG COIL 38KBTU/HR 9.3EER,Inlet,1
 Non-Parent Node Connection,GUESTROOM202_205 ZN PTAC COOLING COIL OUTLET NODE,COIL:COOLING:DX:SINGLESPEED,GUESTROOM202_205 ZN PTAC 1SPD DX AC CLG COIL 38KBTU/HR 9.3EER,Outlet,1
 Non-Parent Node Connection,GUESTROOM206_208 ZN PTAC MIXED AIR NODE,COIL:COOLING:DX:SINGLESPEED,GUESTROOM206_208 ZN PTAC 1SPD DX AC CLG COIL 31KBTU/HR 9.3EER,Inlet,1
 Non-Parent Node Connection,GUESTROOM206_208 ZN PTAC COOLING COIL OUTLET NODE,COIL:COOLING:DX:SINGLESPEED,GUESTROOM206_208 ZN PTAC 1SPD DX AC CLG COIL 31KBTU/HR 9.3EER,Outlet,1
 Non-Parent Node Connection,GUESTROOM209_212 ZN PTAC MIXED AIR NODE,COIL:COOLING:DX:SINGLESPEED,GUESTROOM209_212 ZN PTAC 1SPD DX AC CLG COIL 34KBTU/HR 9.3EER,Inlet,1
 Non-Parent Node Connection,GUESTROOM209_212 ZN PTAC COOLING COIL OUTLET NODE,COIL:COOLING:DX:SINGLESPEED,GUESTROOM209_212 ZN PTAC 1SPD DX AC CLG COIL 34KBTU/HR 9.3EER,Outlet,1
 Non-Parent Node Connection,GUESTROOM213 ZN PTAC MIXED AIR NODE,COIL:COOLING:DX:SINGLESPEED,GUESTROOM213 ZN PTAC 1SPD DX AC CLG COIL 10KBTU/HR 10.7EER,Inlet,1
 Non-Parent Node Connection,GUESTROOM213 ZN PTAC COOLING COIL OUTLET NODE,COIL:COOLING:DX:SINGLESPEED,GUESTROOM213 ZN PTAC 1SPD DX AC CLG COIL 10KBTU/HR 10.7EER,Outlet,1
 Non-Parent Node Connection,GUESTROOM214 ZN PTAC MIXED AIR NODE,COIL:COOLING:DX:SINGLESPEED,GUESTROOM214 ZN PTAC 1SPD DX AC CLG COIL 12KBTU/HR 10.1EER,Inlet,1
 Non-Parent Node Connection,GUESTROOM214 ZN PTAC COOLING COIL OUTLET NODE,COIL:COOLING:DX:SINGLESPEED,GUESTROOM214 ZN PTAC 1SPD DX AC CLG COIL 12KBTU/HR 10.1EER,Outlet,1
 Non-Parent Node Connection,GUESTROOM215_218 ZN PTAC MIXED AIR NODE,COIL:COOLING:DX:SINGLESPEED,GUESTROOM215_218 ZN PTAC 1SPD DX AC CLG COIL 55KBTU/HR 9.3EER,Inlet,1
 Non-Parent Node Connection,GUESTROOM215_218 ZN PTAC COOLING COIL OUTLET NODE,COIL:COOLING:DX:SINGLESPEED,GUESTROOM215_218 ZN PTAC 1SPD DX AC CLG COIL 55KBTU/HR 9.3EER,Outlet,1
 Non-Parent Node Connection,GUESTROOM219 ZN PTAC MIXED AIR NODE,COIL:COOLING:DX:SINGLESPEED,GUESTROOM219 ZN PTAC 1SPD DX AC CLG COIL 47KBTU/HR 9.3EER,Inlet,1
 Non-Parent Node Connection,GUESTROOM219 ZN PTAC COOLING COIL OUTLET NODE,COIL:COOLING:DX:SINGLESPEED,GUESTROOM219 ZN PTAC 1SPD DX AC CLG COIL 47KBTU/HR 9.3EER,Outlet,1
 Non-Parent Node Connection,GUESTROOM220_223 ZN PTAC MIXED AIR NODE,COIL:COOLING:DX:SINGLESPEED,GUESTROOM220_223 ZN PTAC 1SPD DX AC CLG COIL 40KBTU/HR 9.3EER,Inlet,1
 Non-Parent Node Connection,GUESTROOM220_223 ZN PTAC COOLING COIL OUTLET NODE,COIL:COOLING:DX:SINGLESPEED,GUESTROOM220_223 ZN PTAC 1SPD DX AC CLG COIL 40KBTU/HR 9.3EER,Outlet,1
 Non-Parent Node Connection,GUESTROOM224 ZN PTAC MIXED AIR NODE,COIL:COOLING:DX:SINGLESPEED,GUESTROOM224 ZN PTAC 1SPD DX AC CLG COIL 12KBTU/HR 10.2EER,Inlet,1
 Non-Parent Node Connection,GUESTROOM224 ZN PTAC COOLING COIL OUTLET NODE,COIL:COOLING:DX:SINGLESPEED,GUESTROOM224 ZN PTAC 1SPD DX AC CLG COIL 12KBTU/HR 10.2EER,Outlet,1
 Non-Parent Node Connection,GUESTROOM301 ZN PTAC MIXED AIR NODE,COIL:COOLING:DX:SINGLESPEED,GUESTROOM301 ZN PTAC 1SPD DX AC CLG COIL 3KBTU/HR 11.7EER,Inlet,1
 Non-Parent Node Connection,GUESTROOM301 ZN PTAC COOLING COIL OUTLET NODE,COIL:COOLING:DX:SINGLESPEED,GUESTROOM301 ZN PTAC 1SPD DX AC CLG COIL 3KBTU/HR 11.7EER,Outlet,1
 Non-Parent Node Connection,GUESTROOM302_305 ZN PTAC MIXED AIR NODE,COIL:COOLING:DX:SINGLESPEED,GUESTROOM302_305 ZN PTAC 1SPD DX AC CLG COIL 7KBTU/HR 11.6EER,Inlet,1
 Non-Parent Node Connection,GUESTROOM302_305 ZN PTAC COOLING COIL OUTLET NODE,COIL:COOLING:DX:SINGLESPEED,GUESTROOM302_305 ZN PTAC 1SPD DX AC CLG COIL 7KBTU/HR 11.6EER,Outlet,1
 Non-Parent Node Connection,GUESTROOM306_308 ZN PTAC MIXED AIR NODE,COIL:COOLING:DX:SINGLESPEED,GUESTROOM306_308 ZN PTAC 1SPD DX AC CLG COIL 6KBTU/HR 11.7EER,Inlet,1
 Non-Parent Node Connection,GUESTROOM306_308 ZN PTAC COOLING COIL OUTLET NODE,COIL:COOLING:DX:SINGLESPEED,GUESTROOM306_308 ZN PTAC 1SPD DX AC CLG COIL 6KBTU/HR 11.7EER,Outlet,1
 Non-Parent Node Connection,GUESTROOM309_312 ZN PTAC MIXED AIR NODE,COIL:COOLING:DX:SINGLESPEED,GUESTROOM309_312 ZN PTAC 1SPD DX AC CLG COIL 35KBTU/HR 9.3EER,Inlet,1
 Non-Parent Node Connection,GUESTROOM309_312 ZN PTAC COOLING COIL OUTLET NODE,COIL:COOLING:DX:SINGLESPEED,GUESTROOM309_312 ZN PTAC 1SPD DX AC CLG COIL 35KBTU/HR 9.3EER,Outlet,1
 Non-Parent Node Connection,GUESTROOM313 ZN PTAC MIXED AIR NODE,COIL:COOLING:DX:SINGLESPEED,GUESTROOM313 ZN PTAC 1SPD DX AC CLG COIL 2KBTU/HR 11.7EER,Inlet,1
 Non-Parent Node Connection,GUESTROOM313 ZN PTAC COOLING COIL OUTLET NODE,COIL:COOLING:DX:SINGLESPEED,GUESTROOM313 ZN PTAC 1SPD DX AC CLG COIL 2KBTU/HR 11.7EER,Outlet,1
 Non-Parent Node Connection,GUESTROOM314 ZN PTAC MIXED AIR NODE,COIL:COOLING:DX:SINGLESPEED,GUESTROOM314 ZN PTAC 1SPD DX AC CLG COIL 12KBTU/HR 10.3EER,Inlet,1
 Non-Parent Node Connection,GUESTROOM314 ZN PTAC COOLING COIL OUTLET NODE,COIL:COOLING:DX:SINGLESPEED,GUESTROOM314 ZN PTAC 1SPD DX AC CLG COIL 12KBTU/HR 10.3EER,Outlet,1
 Non-Parent Node Connection,GUESTROOM315_318 ZN PTAC MIXED AIR NODE,COIL:COOLING:DX:SINGLESPEED,GUESTROOM315_318 ZN PTAC 1SPD DX AC CLG COIL 47KBTU/HR 9.3EER,Inlet,1
 Non-Parent Node Connection,GUESTROOM315_318 ZN PTAC COOLING COIL OUTLET NODE,COIL:COOLING:DX:SINGLESPEED,GUESTROOM315_318 ZN PTAC 1SPD DX AC CLG COIL 47KBTU/HR 9.3EER,Outlet,1
 Non-Parent Node Connection,GUESTROOM319 ZN PTAC MIXED AIR NODE,COIL:COOLING:DX:SINGLESPEED,GUESTROOM319 ZN PTAC 1SPD DX AC CLG COIL 5KBTU/HR 11.7EER,Inlet,1
 Non-Parent Node Connection,GUESTROOM319 ZN PTAC COOLING COIL OUTLET NODE,COIL:COOLING:DX:SINGLESPEED,GUESTROOM319 ZN PTAC 1SPD DX AC CLG COIL 5KBTU/HR 11.7EER,Outlet,1
 Non-Parent Node Connection,GUESTROOM320_323 ZN PTAC MIXED AIR NODE,COIL:COOLING:DX:SINGLESPEED,GUESTROOM320_323 ZN PTAC 1SPD DX AC CLG COIL 39KBTU/HR 9.3EER,Inlet,1
 Non-Parent Node Connection,GUESTROOM320_323 ZN PTAC COOLING COIL OUTLET NODE,COIL:COOLING:DX:SINGLESPEED,GUESTROOM320_323 ZN PTAC 1SPD DX AC CLG COIL 39KBTU/HR 9.3EER,Outlet,1
 Non-Parent Node Connection,GUESTROOM324 ZN PTAC MIXED AIR NODE,COIL:COOLING:DX:SINGLESPEED,GUESTROOM324 ZN PTAC 1SPD DX AC CLG COIL 3KBTU/HR 11.7EER,Inlet,1
 Non-Parent Node Connection,GUESTROOM324 ZN PTAC COOLING COIL OUTLET NODE,COIL:COOLING:DX:SINGLESPEED,GUESTROOM324 ZN PTAC 1SPD DX AC CLG COIL 3KBTU/HR 11.7EER,Outlet,1
 Non-Parent Node Connection,GUESTROOM401 ZN PTAC MIXED AIR NODE,COIL:COOLING:DX:SINGLESPEED,GUESTROOM401 ZN PTAC 1SPD DX AC CLG COIL 15KBTU/HR 9.4EER,Inlet,1
 Non-Parent Node Connection,GUESTROOM401 ZN PTAC COOLING COIL OUTLET NODE,COIL:COOLING:DX:SINGLESPEED,GUESTROOM401 ZN PTAC 1SPD DX AC CLG COIL 15KBTU/HR 9.4EER,Outlet,1
 Non-Parent Node Connection,GUESTROOM402_405 ZN PTAC MIXED AIR NODE,COIL:COOLING:DX:SINGLESPEED,GUESTROOM402_405 ZN PTAC 1SPD DX AC CLG COIL 13KBTU/HR 9.9EER,Inlet,1
 Non-Parent Node Connection,GUESTROOM402_405 ZN PTAC COOLING COIL OUTLET NODE,COIL:COOLING:DX:SINGLESPEED,GUESTROOM402_405 ZN PTAC 1SPD DX AC CLG COIL 13KBTU/HR 9.9EER,Outlet,1
 Non-Parent Node Connection,GUESTROOM406_408 ZN PTAC MIXED AIR NODE,COIL:COOLING:DX:SINGLESPEED,GUESTROOM406_408 ZN PTAC 1SPD DX AC CLG COIL 11KBTU/HR 10.5EER,Inlet,1
 Non-Parent Node Connection,GUESTROOM406_408 ZN PTAC COOLING COIL OUTLET NODE,COIL:COOLING:DX:SINGLESPEED,GUESTROOM406_408 ZN PTAC 1SPD DX AC CLG COIL 11KBTU/HR 10.5EER,Outlet,1
 Non-Parent Node Connection,GUESTROOM409_412 ZN PTAC MIXED AIR NODE,COIL:COOLING:DX:SINGLESPEED,GUESTROOM409_412 ZN PTAC 1SPD DX AC CLG COIL 45KBTU/HR 9.3EER,Inlet,1
 Non-Parent Node Connection,GUESTROOM409_412 ZN PTAC COOLING COIL OUTLET NODE,COIL:COOLING:DX:SINGLESPEED,GUESTROOM409_412 ZN PTAC 1SPD DX AC CLG COIL 45KBTU/HR 9.3EER,Outlet,1
 Non-Parent Node Connection,GUESTROOM413 ZN PTAC MIXED AIR NODE,COIL:COOLING:DX:SINGLESPEED,GUESTROOM413 ZN PTAC 1SPD DX AC CLG COIL 5KBTU/HR 11.7EER,Inlet,1
 Non-Parent Node Connection,GUESTROOM413 ZN PTAC COOLING COIL OUTLET NODE,COIL:COOLING:DX:SINGLESPEED,GUESTROOM413 ZN PTAC 1SPD DX AC CLG COIL 5KBTU/HR 11.7EER,Outlet,1
 Non-Parent Node Connection,GUESTROOM414 ZN PTAC MIXED AIR NODE,COIL:COOLING:DX:SINGLESPEED,GUESTROOM414 ZN PTAC 1SPD DX AC CLG COIL 5KBTU/HR 11.7EER,Inlet,1
 Non-Parent Node Connection,GUESTROOM414 ZN PTAC COOLING COIL OUTLET NODE,COIL:COOLING:DX:SINGLESPEED,GUESTROOM414 ZN PTAC 1SPD DX AC CLG COIL 5KBTU/HR 11.7EER,Outlet,1
 Non-Parent Node Connection,GUESTROOM415_418 ZN PTAC MIXED AIR NODE,COIL:COOLING:DX:SINGLESPEED,GUESTROOM415_418 ZN PTAC 1SPD DX AC CLG COIL 53KBTU/HR 9.3EER,Inlet,1
 Non-Parent Node Connection,GUESTROOM415_418 ZN PTAC COOLING COIL OUTLET NODE,COIL:COOLING:DX:SINGLESPEED,GUESTROOM415_418 ZN PTAC 1SPD DX AC CLG COIL 53KBTU/HR 9.3EER,Outlet,1
 Non-Parent Node Connection,GUESTROOM419 ZN PTAC MIXED AIR NODE,COIL:COOLING:DX:SINGLESPEED,GUESTROOM419 ZN PTAC 1SPD DX AC CLG COIL 15KBTU/HR 9.4EER,Inlet,1
 Non-Parent Node Connection,GUESTROOM419 ZN PTAC COOLING COIL OUTLET NODE,COIL:COOLING:DX:SINGLESPEED,GUESTROOM419 ZN PTAC 1SPD DX AC CLG COIL 15KBTU/HR 9.4EER,Outlet,1
 Non-Parent Node Connection,GUESTROOM420_423 ZN PTAC MIXED AIR NODE,COIL:COOLING:DX:SINGLESPEED,GUESTROOM420_423 ZN PTAC 1SPD DX AC CLG COIL 51KBTU/HR 9.3EER,Inlet,1
 Non-Parent Node Connection,GUESTROOM420_423 ZN PTAC COOLING COIL OUTLET NODE,COIL:COOLING:DX:SINGLESPEED,GUESTROOM420_423 ZN PTAC 1SPD DX AC CLG COIL 51KBTU/HR 9.3EER,Outlet,1
 Non-Parent Node Connection,GUESTROOM424 ZN PTAC MIXED AIR NODE,COIL:COOLING:DX:SINGLESPEED,GUESTROOM424 ZN PTAC 1SPD DX AC CLG COIL 15KBTU/HR 9.3EER,Inlet,1
 Non-Parent Node Connection,GUESTROOM424 ZN PTAC COOLING COIL OUTLET NODE,COIL:COOLING:DX:SINGLESPEED,GUESTROOM424 ZN PTAC 1SPD DX AC CLG COIL 15KBTU/HR 9.3EER,Outlet,1
 Non-Parent Node Connection,NODE 156,COIL:COOLING:DX:SINGLESPEED,EXERCISECENTERFLR1 ZN - EMPLOYEELOUNGEFLR1 ZN - RESTROOMFLR1 ZN SAC 1SPD DX AC CLG COIL 53KBTU/HR 13.0SEER,Inlet,1
 Non-Parent Node Connection,NODE 155,COIL:COOLING:DX:SINGLESPEED,EXERCISECENTERFLR1 ZN - EMPLOYEELOUNGEFLR1 ZN - RESTROOMFLR1 ZN SAC 1SPD DX AC CLG COIL 53KBTU/HR 13.0SEER,Outlet,1
 Non-Parent Node Connection,NODE 172,COIL:COOLING:DX:SINGLESPEED,FRONTLOUNGEFLR1 ZN SAC 1SPD DX AC CLG COIL 60KBTU/HR 13.0SEER,Inlet,1
 Non-Parent Node Connection,NODE 171,COIL:COOLING:DX:SINGLESPEED,FRONTLOUNGEFLR1 ZN SAC 1SPD DX AC CLG COIL 60KBTU/HR 13.0SEER,Outlet,1
 Non-Parent Node Connection,NODE 184,COIL:COOLING:DX:SINGLESPEED,FRONTOFFICEFLR1 ZN SAC 1SPD DX AC CLG COIL 24KBTU/HR 13.0SEER,Inlet,1
 Non-Parent Node Connection,NODE 183,COIL:COOLING:DX:SINGLESPEED,FRONTOFFICEFLR1 ZN SAC 1SPD DX AC CLG COIL 24KBTU/HR 13.0SEER,Outlet,1
 Non-Parent Node Connection,NODE 196,COIL:COOLING:DX:SINGLESPEED,MEETINGROOMFLR1 ZN SAC 1SPD DX AC CLG COIL 31KBTU/HR 13.0SEER,Inlet,1
 Non-Parent Node Connection,NODE 195,COIL:COOLING:DX:SINGLESPEED,MEETINGROOMFLR1 ZN SAC 1SPD DX AC CLG COIL 31KBTU/HR 13.0SEER,Outlet,1
 Non-Parent Node Connection,NODE 158,AIRTERMINAL:SINGLEDUCT:UNCONTROLLED,EMPLOYEELOUNGEFLR1 ZN SAC DIFFUSER,Outlet,1
 Non-Parent Node Connection,NODE 150,AIRTERMINAL:SINGLEDUCT:UNCONTROLLED,EXERCISECENTERFLR1 ZN SAC DIFFUSER,Outlet,1
 Non-Parent Node Connection,NODE 166,AIRTERMINAL:SINGLEDUCT:UNCONTROLLED,FRONTLOUNGEFLR1 ZN SAC DIFFUSER,Outlet,1
 Non-Parent Node Connection,NODE 178,AIRTERMINAL:SINGLEDUCT:UNCONTROLLED,FRONTOFFICEFLR1 ZN SAC DIFFUSER,Outlet,1
 Non-Parent Node Connection,NODE 190,AIRTERMINAL:SINGLEDUCT:UNCONTROLLED,MEETINGROOMFLR1 ZN SAC DIFFUSER,Outlet,1
 Non-Parent Node Connection,NODE 160,AIRTERMINAL:SINGLEDUCT:UNCONTROLLED,RESTROOMFLR1 ZN SAC DIFFUSER,Outlet,1
 Non-Parent Node Connection,NODE 149,AIRLOOPHVAC:ZONEMIXER,AIR LOOP HVAC ZONE MIXER 1,Outlet,1
 Non-Parent Node Connection,NODE 157,AIRLOOPHVAC:ZONEMIXER,AIR LOOP HVAC ZONE MIXER 1,Inlet,1
 Non-Parent Node Connection,NODE 159,AIRLOOPHVAC:ZONEMIXER,AIR LOOP HVAC ZONE MIXER 1,Inlet,1
 Non-Parent Node Connection,NODE 161,AIRLOOPHVAC:ZONEMIXER,AIR LOOP HVAC ZONE MIXER 1,Inlet,1
 Non-Parent Node Connection,NODE 165,AIRLOOPHVAC:ZONEMIXER,AIR LOOP HVAC ZONE MIXER 2,Outlet,1
 Non-Parent Node Connection,NODE 173,AIRLOOPHVAC:ZONEMIXER,AIR LOOP HVAC ZONE MIXER 2,Inlet,1
 Non-Parent Node Connection,NODE 177,AIRLOOPHVAC:ZONEMIXER,AIR LOOP HVAC ZONE MIXER 3,Outlet,1
 Non-Parent Node Connection,NODE 185,AIRLOOPHVAC:ZONEMIXER,AIR LOOP HVAC ZONE MIXER 3,Inlet,1
 Non-Parent Node Connection,NODE 189,AIRLOOPHVAC:ZONEMIXER,AIR LOOP HVAC ZONE MIXER 4,Outlet,1
 Non-Parent Node Connection,NODE 197,AIRLOOPHVAC:ZONEMIXER,AIR LOOP HVAC ZONE MIXER 4,Inlet,1
 Non-Parent Node Connection,NODE 156,CONTROLLER:OUTDOORAIR,EXERCISECENTERFLR1 ZN - EMPLOYEELOUNGEFLR1 ZN - RESTROOMFLR1 ZN SAC OA SYS CONTROLLER,Sensor,1
 Non-Parent Node Connection,NODE 151,CONTROLLER:OUTDOORAIR,EXERCISECENTERFLR1 ZN - EMPLOYEELOUNGEFLR1 ZN - RESTROOMFLR1 ZN SAC OA SYS CONTROLLER,Actuator,1
 Non-Parent Node Connection,NODE 152,CONTROLLER:OUTDOORAIR,EXERCISECENTERFLR1 ZN - EMPLOYEELOUNGEFLR1 ZN - RESTROOMFLR1 ZN SAC OA SYS CONTROLLER,Actuator,1
 Non-Parent Node Connection,NODE 146,CONTROLLER:OUTDOORAIR,EXERCISECENTERFLR1 ZN - EMPLOYEELOUNGEFLR1 ZN - RESTROOMFLR1 ZN SAC OA SYS CONTROLLER,Sensor,1
 Non-Parent Node Connection,NODE 172,CONTROLLER:OUTDOORAIR,FRONTLOUNGEFLR1 ZN SAC OA SYS CONTROLLER,Sensor,1
 Non-Parent Node Connection,NODE 167,CONTROLLER:OUTDOORAIR,FRONTLOUNGEFLR1 ZN SAC OA SYS CONTROLLER,Actuator,1
 Non-Parent Node Connection,NODE 168,CONTROLLER:OUTDOORAIR,FRONTLOUNGEFLR1 ZN SAC OA SYS CONTROLLER,Actuator,1
 Non-Parent Node Connection,NODE 162,CONTROLLER:OUTDOORAIR,FRONTLOUNGEFLR1 ZN SAC OA SYS CONTROLLER,Sensor,1
 Non-Parent Node Connection,NODE 184,CONTROLLER:OUTDOORAIR,FRONTOFFICEFLR1 ZN SAC OA SYS CONTROLLER,Sensor,1
 Non-Parent Node Connection,NODE 179,CONTROLLER:OUTDOORAIR,FRONTOFFICEFLR1 ZN SAC OA SYS CONTROLLER,Actuator,1
 Non-Parent Node Connection,NODE 180,CONTROLLER:OUTDOORAIR,FRONTOFFICEFLR1 ZN SAC OA SYS CONTROLLER,Actuator,1
 Non-Parent Node Connection,NODE 174,CONTROLLER:OUTDOORAIR,FRONTOFFICEFLR1 ZN SAC OA SYS CONTROLLER,Sensor,1
 Non-Parent Node Connection,NODE 196,CONTROLLER:OUTDOORAIR,MEETINGROOMFLR1 ZN SAC OA SYS CONTROLLER,Sensor,1
 Non-Parent Node Connection,NODE 191,CONTROLLER:OUTDOORAIR,MEETINGROOMFLR1 ZN SAC OA SYS CONTROLLER,Actuator,1
 Non-Parent Node Connection,NODE 192,CONTROLLER:OUTDOORAIR,MEETINGROOMFLR1 ZN SAC OA SYS CONTROLLER,Actuator,1
 Non-Parent Node Connection,NODE 186,CONTROLLER:OUTDOORAIR,MEETINGROOMFLR1 ZN SAC OA SYS CONTROLLER,Sensor,1
 Non-Parent Node Connection,NODE 300,PUMP:CONSTANTSPEED,SERVICE WATER LOOP PUMP 1,Inlet,1
 Non-Parent Node Connection,NODE 306,PUMP:CONSTANTSPEED,SERVICE WATER LOOP PUMP 1,Outlet,1
 Non-Parent Node Connection,NODE 216,PUMP:CONSTANTSPEED,SERVICE WATER LOOP PUMP,Inlet,1
 Non-Parent Node Connection,NODE 222,PUMP:CONSTANTSPEED,SERVICE WATER LOOP PUMP,Outlet,1
