Program Version,EnergyPlus, Version 8.9.0-497bb3e71c, YMD=2018.06.06 17:02
! This file shows details about the branches, nodes, and other
! elements of the flow connections.
! This file is intended for use in "debugging" potential problems
! that may also be detected by the program, but may be more easily
! identified by "eye".
! This file is also intended to support software which draws a
! schematic diagram of the HVAC system.
! ===============================================================
! #Nodes,<Number of Unique Nodes>
 #Nodes,86
! <Node>,<NodeNumber>,<Node Name>,<Node Fluid Type>,<# Times Node Referenced After Definition>
 Node,1,NODE 8,Air,4
 Node,2,NODE 19,Air,4
 Node,3,NODE 77,Air,2
 Node,4,NODE 5,Air,20
 Node,5,NODE 6,Air,3
 Node,6,NODE 16,Air,10
 Node,7,NODE 17,Air,3
 Node,8,NODE 4,Air,3
 Node,9,NODE 12,Air,7
 Node,10,NODE 11,Air,7
 Node,11,NODE 10,Air,14
 Node,12,NODE 15,Air,3
 Node,13,NODE 22,Air,5
 Node,14,NODE 23,Air,5
 Node,15,NODE 24,Air,8
 Node,16,NODE 41,Water,2
 Node,17,NODE 47,Water,1
 Node,18,NODE 43,Water,1
 Node,19,NODE 48,Water,1
 Node,20,NODE 49,Water,1
 Node,21,NODE 50,Water,1
 Node,22,NODE 51,Water,1
 Node,23,NODE 42,Water,4
 Node,24,NODE 44,Water,2
 Node,25,NODE 58,Water,1
 Node,26,NODE 46,Water,2
 Node,27,NODE 52,Water,1
 Node,28,NODE 54,Water,1
 Node,29,NODE 55,Water,1
 Node,30,CHILLED WATER LOOP DEMAND BYPASS PIPE INLET NODE,Water,1
 Node,31,CHILLED WATER LOOP DEMAND BYPASS PIPE OUTLET NODE,Water,1
 Node,32,NODE 59,Water,1
 Node,33,NODE 45,Water,2
 Node,34,NODE 60,Water,2
 Node,35,NODE 70,Water,1
 Node,36,NODE 62,Water,1
 Node,37,NODE 66,Water,1
 Node,38,NODE 67,Water,1
 Node,39,NODE 68,Water,1
 Node,40,NODE 69,Water,1
 Node,41,NODE 61,Water,4
 Node,42,NODE 63,Water,2
 Node,43,NODE 74,Water,1
 Node,44,NODE 65,Water,1
 Node,45,NODE 71,Water,1
 Node,46,NODE 72,Water,1
 Node,47,NODE 73,Water,1
 Node,48,CONDENSER WATER LOOP DEMAND BYPASS PIPE INLET NODE,Water,1
 Node,49,CONDENSER WATER LOOP DEMAND BYPASS PIPE OUTLET NODE,Water,1
 Node,50,NODE 75,Water,1
 Node,51,NODE 64,Water,2
 Node,52,NODE 25,Water,2
 Node,53,NODE 31,Water,1
 Node,54,NODE 27,Water,1
 Node,55,NODE 32,Water,1
 Node,56,NODE 33,Water,1
 Node,57,NODE 34,Water,1
 Node,58,NODE 40,Water,1
 Node,59,NODE 26,Water,4
 Node,60,NODE 28,Water,2
 Node,61,NODE 39,Water,1
 Node,62,NODE 30,Water,1
 Node,63,NODE 35,Water,1
 Node,64,NODE 36,Water,2
 Node,65,NODE 37,Water,1
 Node,66,NODE 56,Water,1
 Node,67,NODE 57,Water,1
 Node,68,HOT WATER LOOP DEMAND BYPASS PIPE INLET NODE,Water,1
 Node,69,HOT WATER LOOP DEMAND BYPASS PIPE OUTLET NODE,Water,1
 Node,70,NODE 38,Water,1
 Node,71,NODE 29,Water,2
 Node,72,NODE 1,Air,1
 Node,73,NODE 9,Air,1
 Node,74,NODE 13,Air,0
 Node,75,NODE 76,Air,1
 Node,76,NODE 7,Air,2
 Node,77,NODE 18,Air,2
 Node,78,NODE 2,Air,2
 Node,79,NODE 20,Air,2
 Node,80,MODEL OUTDOOR AIR NODE,Air,0
 Node,81,NODE 14,Air,4
 Node,82,NODE 53,Air,1
 Node,83,AIR TERMINAL SINGLE DUCT VAV REHEAT 1 DAMPER OUTLET,Air,1
 Node,84,NODE 78,Air,0
 Node,85,NODE 3,Air,1
 Node,86,NODE 21,Air,1
! ===============================================================
! Suspicious nodes have 0 references.  It is normal for some nodes, however.
! Listing nodes with 0 references (culled from previous list):
! <Suspicious Node>,<NodeNumber>,<Node Name>,<Node Fluid Type>,<# Times Node Referenced After Definition>
 Suspicious Node,74,NODE 13,Air,0
 Suspicious Node,80,MODEL OUTDOOR AIR NODE,Air,0
 Suspicious Node,84,NODE 78,Air,0
! ===============================================================
! <#Branch Lists>,<Number of Branch Lists>
 #Branch Lists,8
! <Branch List>,<Branch List Count>,<Branch List Name>,<Loop Name>,<Loop Type>,<Number of Branches>
! <Branch>,<Branch Count>,<Branch Name>,<Loop Name>,<Loop Type>,<Branch Inlet Node Name>,<Branch Outlet Node Name>
 Branch List,1,AIR LOOP HVAC 1 SUPPLY BRANCHES,AIR LOOP HVAC 1,Air,1
   Branch,1,AIR LOOP HVAC 1 MAIN BRANCH,AIR LOOP HVAC 1,Air,NODE 4,NODE 5
 Branch List,2,VAV WITH REHEAT SUPPLY BRANCHES,VAV WITH REHEAT,Air,1
   Branch,1,VAV WITH REHEAT MAIN BRANCH,VAV WITH REHEAT,Air,NODE 15,NODE 16
 Branch List,3,CHILLED WATER LOOP SUPPLY BRANCHES,CHILLED WATER LOOP,Plant Supply,4
   Branch,1,CHILLED WATER LOOP SUPPLY INLET BRANCH,CHILLED WATER LOOP,Plant Supply,NODE 41,NODE 47
   Branch,2,CHILLED WATER LOOP SUPPLY BRANCH 1,CHILLED WATER LOOP,Plant Supply,NODE 43,NODE 48
   Branch,3,CHILLED WATER LOOP SUPPLY BRANCH 2,CHILLED WATER LOOP,Plant Supply,NODE 49,NODE 50
   Branch,4,CHILLED WATER LOOP SUPPLY OUTLET BRANCH,CHILLED WATER LOOP,Plant Supply,NODE 51,NODE 42
 Branch List,4,CHILLED WATER LOOP DEMAND BRANCHES,CHILLED WATER LOOP,Plant Demand,5
   Branch,1,CHILLED WATER LOOP DEMAND INLET BRANCH,CHILLED WATER LOOP,Plant Demand,NODE 44,NODE 58
   Branch,2,CHILLED WATER LOOP DEMAND BRANCH 1,CHILLED WATER LOOP,Plant Demand,NODE 46,NODE 52
   Branch,3,CHILLED WATER LOOP DEMAND BRANCH 2,CHILLED WATER LOOP,Plant Demand,NODE 54,NODE 55
   Branch,4,CHILLED WATER LOOP DEMAND BYPASS BRANCH,CHILLED WATER LOOP,Plant Demand,CHILLED WATER LOOP DEMAND BYPASS PIPE INLET NODE,CHILLED WATER LOOP DEMAND BYPASS PIPE OUTLET NODE
   Branch,5,CHILLED WATER LOOP DEMAND OUTLET BRANCH,CHILLED WATER LOOP,Plant Demand,NODE 59,NODE 45
 Branch List,5,CONDENSER WATER LOOP SUPPLY BRANCHES,CONDENSER WATER LOOP,Plant Supply,4
   Branch,1,CONDENSER WATER LOOP SUPPLY INLET BRANCH,CONDENSER WATER LOOP,Plant Supply,NODE 60,NODE 70
   Branch,2,CONDENSER WATER LOOP SUPPLY BRANCH 1,CONDENSER WATER LOOP,Plant Supply,NODE 62,NODE 66
   Branch,3,CONDENSER WATER LOOP SUPPLY BRANCH 2,CONDENSER WATER LOOP,Plant Supply,NODE 67,NODE 68
   Branch,4,CONDENSER WATER LOOP SUPPLY OUTLET BRANCH,CONDENSER WATER LOOP,Plant Supply,NODE 69,NODE 61
 Branch List,6,CONDENSER WATER LOOP DEMAND BRANCHES,CONDENSER WATER LOOP,Plant Demand,5
   Branch,1,CONDENSER WATER LOOP DEMAND INLET BRANCH,CONDENSER WATER LOOP,Plant Demand,NODE 63,NODE 74
   Branch,2,CONDENSER WATER LOOP DEMAND BRANCH 1,CONDENSER WATER LOOP,Plant Demand,NODE 65,NODE 71
   Branch,3,CONDENSER WATER LOOP DEMAND BRANCH 2,CONDENSER WATER LOOP,Plant Demand,NODE 72,NODE 73
   Branch,4,CONDENSER WATER LOOP DEMAND BYPASS BRANCH,CONDENSER WATER LOOP,Plant Demand,CONDENSER WATER LOOP DEMAND BYPASS PIPE INLET NODE,CONDENSER WATER LOOP DEMAND BYPASS PIPE OUTLET NODE
   Branch,5,CONDENSER WATER LOOP DEMAND OUTLET BRANCH,CONDENSER WATER LOOP,Plant Demand,NODE 75,NODE 64
 Branch List,7,HOT WATER LOOP SUPPLY BRANCHES,HOT WATER LOOP,Plant Supply,4
   Branch,1,HOT WATER LOOP SUPPLY INLET BRANCH,HOT WATER LOOP,Plant Supply,NODE 25,NODE 31
   Branch,2,HOT WATER LOOP SUPPLY BRANCH 1,HOT WATER LOOP,Plant Supply,NODE 27,NODE 32
   Branch,3,HOT WATER LOOP SUPPLY BRANCH 2,HOT WATER LOOP,Plant Supply,NODE 33,NODE 34
   Branch,4,HOT WATER LOOP SUPPLY OUTLET BRANCH,HOT WATER LOOP,Plant Supply,NODE 40,NODE 26
 Branch List,8,HOT WATER LOOP DEMAND BRANCHES,HOT WATER LOOP,Plant Demand,6
   Branch,1,HOT WATER LOOP DEMAND INLET BRANCH,HOT WATER LOOP,Plant Demand,NODE 28,NODE 39
   Branch,2,HOT WATER LOOP DEMAND BRANCH 1,HOT WATER LOOP,Plant Demand,NODE 30,NODE 35
   Branch,3,HOT WATER LOOP DEMAND BRANCH 2,HOT WATER LOOP,Plant Demand,NODE 36,NODE 37
   Branch,4,HOT WATER LOOP DEMAND BRANCH 3,HOT WATER LOOP,Plant Demand,NODE 56,NODE 57
   Branch,5,HOT WATER LOOP DEMAND BYPASS BRANCH,HOT WATER LOOP,Plant Demand,HOT WATER LOOP DEMAND BYPASS PIPE INLET NODE,HOT WATER LOOP DEMAND BYPASS PIPE OUTLET NODE
   Branch,6,HOT WATER LOOP DEMAND OUTLET BRANCH,HOT WATER LOOP,Plant Demand,NODE 38,NODE 29
! ===============================================================
! <#Supply Air Paths>,<Number of Supply Air Paths>
 #Supply Air Paths,2
! <Supply Air Path>,<Supply Air Path Count>,<Supply Air Path Name>,<AirLoopHVAC Name>
! <#Components on Supply Air Path>,<Number of Components>
! <Supply Air Path Component>,<Component Count>,<Component Type>,<Component Name>,<AirLoopHVAC Name>
! <#Outlet Nodes on Supply Air Path Component>,<Number of Nodes>
! <Supply Air Path Component Nodes>,<Node Count>,<Component Type>,<Component Name>,<Inlet Node Name>,<Outlet Node Name>,<AirLoopHVAC Name>
 Supply Air Path,1,AIR LOOP HVAC 1 NODE 6 SUPPLY PATH,AIR LOOP HVAC 1
   #Components on Supply Air Path,1
   Supply Air Path Component,1,AIRLOOPHVAC:ZONESPLITTER,AIR LOOP HVAC ZONE SPLITTER 1,AIR LOOP HVAC 1
     #Outlet Nodes on Supply Air Path Component,1
     Supply Air Path Component Nodes,1,AIRLOOPHVAC:ZONESPLITTER,AIR LOOP HVAC ZONE SPLITTER 1,NODE 6,NODE 8,AIR LOOP HVAC 1
! <#Nodes on Supply Air Path>,<Number of Nodes>
! <Supply Air Path Node>,<Node Type>,<Node Count>,<Node Name>,<AirLoopHVAC Name>
#Nodes on Supply Air Path,2
   Supply Air Path Node,Inlet Node,1,NODE 6,AIR LOOP HVAC 1
   Supply Air Path Node,Outlet Node,2,NODE 8,AIR LOOP HVAC 1
 Supply Air Path,2,VAV WITH REHEAT NODE 17 SUPPLY PATH,VAV WITH REHEAT
   #Components on Supply Air Path,1
   Supply Air Path Component,1,AIRLOOPHVAC:ZONESPLITTER,AIR LOOP HVAC ZONE SPLITTER 2,VAV WITH REHEAT
     #Outlet Nodes on Supply Air Path Component,1
     Supply Air Path Component Nodes,1,AIRLOOPHVAC:ZONESPLITTER,AIR LOOP HVAC ZONE SPLITTER 2,NODE 17,NODE 53,VAV WITH REHEAT
! <#Nodes on Supply Air Path>,<Number of Nodes>
! <Supply Air Path Node>,<Node Type>,<Node Count>,<Node Name>,<AirLoopHVAC Name>
#Nodes on Supply Air Path,2
   Supply Air Path Node,Inlet Node,1,NODE 17,VAV WITH REHEAT
   Supply Air Path Node,Outlet Node,2,NODE 53,VAV WITH REHEAT
! ===============================================================
! <#Return Air Paths>,<Number of Return Air Paths>
 #Return Air Paths,2
! <Return Air Path>,<Return Air Path Count>,<Return Air Path Name>,<AirLoopHVAC Name>
! <#Components on Return Air Path>,<Number of Components>
! <Return Air Path Component>,<Component Count>,<Component Type>,<Component Name>,<AirLoopHVAC Name>
! <#Inlet Nodes on Return Air Path Component>,<Number of Nodes>
! <Return Air Path Component Nodes>,<Node Count>,<Component Type>,<Component Name>,<Inlet Node Name>,<Outlet Node Name>,<AirLoopHVAC Name>
 Return Air Path,1,AIR LOOP HVAC 1 RETURN PATH,AIR LOOP HVAC 1
   #Components on Return Air Path,1
   Return Air Path Component,1,AIRLOOPHVAC:ZONEMIXER,AIR LOOP HVAC ZONE MIXER 1,AIR LOOP HVAC 1
     #Inlet Nodes on Return Air Path Component,1
     Return Air Path Component Nodes,1,AIRLOOPHVAC:ZONEMIXER,AIR LOOP HVAC ZONE MIXER 1,NODE 9,NODE 7,AIR LOOP HVAC 1
! <#Nodes on Return Air Path>,<Number of Nodes>
! <Return Air Path Node>,<Node Type>,<Node Count>,<Node Name>,<AirLoopHVAC Name>
   #Nodes on Return Air Path,2
   Return Air Path Node,Outlet Node,1,NODE 7,AIR LOOP HVAC 1
   Return Air Path Node,Inlet Node,2,NODE 9,AIR LOOP HVAC 1
 Return Air Path,2,VAV WITH REHEAT RETURN PATH,VAV WITH REHEAT
   #Components on Return Air Path,1
   Return Air Path Component,1,AIRLOOPHVAC:ZONEMIXER,AIR LOOP HVAC ZONE MIXER 2,VAV WITH REHEAT
     #Inlet Nodes on Return Air Path Component,1
     Return Air Path Component Nodes,1,AIRLOOPHVAC:ZONEMIXER,AIR LOOP HVAC ZONE MIXER 2,NODE 76,NODE 18,VAV WITH REHEAT
! <#Nodes on Return Air Path>,<Number of Nodes>
! <Return Air Path Node>,<Node Type>,<Node Count>,<Node Name>,<AirLoopHVAC Name>
   #Nodes on Return Air Path,2
   Return Air Path Node,Outlet Node,1,NODE 18,VAV WITH REHEAT
   Return Air Path Node,Inlet Node,2,NODE 76,VAV WITH REHEAT
! ===============================================================
! #Outdoor Air Nodes,<Number of Outdoor Air Nodes>
 #Outdoor Air Nodes,3
! <Outdoor Air Node>,<NodeNumber>,<Node Name>
 Outdoor Air Node,78,NODE 2
 Outdoor Air Node,79,NODE 20
 Outdoor Air Node,80,MODEL OUTDOOR AIR NODE
! ===============================================================
! <#Component Sets>,<Number of Component Sets>
 #Component Sets,42
! <Component Set>,<Component Set Count>,<Parent Object Type>,<Parent Object Name>,<Component Type>,<Component Name>,<Inlet Node ID>,<Outlet Node ID>,<Description>
 Component Set,1,BRANCH,AIR LOOP HVAC 1 MAIN BRANCH,AIRLOOPHVAC:OUTDOORAIRSYSTEM,AIR LOOP HVAC OUTDOOR AIR SYSTEM 1,NODE 4,NODE 12,Air Nodes
 Component Set,2,BRANCH,AIR LOOP HVAC 1 MAIN BRANCH,COILSYSTEM:COOLING:DX,COIL COOLING DX SINGLE SPEED 1 COILSYSTEM,NODE 12,NODE 11,Air Nodes
 Component Set,3,BRANCH,AIR LOOP HVAC 1 MAIN BRANCH,COIL:HEATING:FUEL,COIL HEATING GAS 1,NODE 11,NODE 10,Air Nodes
 Component Set,4,BRANCH,AIR LOOP HVAC 1 MAIN BRANCH,FAN:CONSTANTVOLUME,STANDARD FAN,NODE 10,NODE 5,Air Nodes
 Component Set,5,BRANCH,VAV WITH REHEAT MAIN BRANCH,AIRLOOPHVAC:OUTDOORAIRSYSTEM,AIR LOOP HVAC OUTDOOR AIR SYSTEM 2,NODE 15,NODE 22,Air Nodes
 Component Set,6,BRANCH,VAV WITH REHEAT MAIN BRANCH,COIL:COOLING:WATER,COIL COOLING WATER 1,NODE 22,NODE 23,Air Nodes
 Component Set,7,BRANCH,VAV WITH REHEAT MAIN BRANCH,COIL:HEATING:WATER,COIL HEATING WATER 1,NODE 23,NODE 24,Air Nodes
 Component Set,8,BRANCH,VAV WITH REHEAT MAIN BRANCH,FAN:VARIABLEVOLUME,FAN VARIABLE VOLUME 1,NODE 24,NODE 16,Air Nodes
 Component Set,9,BRANCH,CHILLED WATER LOOP SUPPLY INLET BRANCH,PUMP:VARIABLESPEED,PUMP VARIABLE SPEED 2,NODE 41,NODE 47,Water Nodes
 Component Set,10,BRANCH,CHILLED WATER LOOP SUPPLY BRANCH 1,CHILLER:ELECTRIC:EIR,CHILLER ELECTRIC EIR 1,NODE 43,NODE 48,Chilled Water Nodes
 Component Set,11,BRANCH,CHILLED WATER LOOP SUPPLY BRANCH 2,PIPE:ADIABATIC,PIPE ADIABATIC 6,NODE 49,NODE 50,Pipe Nodes
 Component Set,12,BRANCH,CHILLED WATER LOOP SUPPLY OUTLET BRANCH,PIPE:ADIABATIC,PIPE ADIABATIC 7,NODE 51,NODE 42,Pipe Nodes
 Component Set,13,BRANCH,CHILLED WATER LOOP DEMAND INLET BRANCH,PIPE:ADIABATIC,PIPE ADIABATIC 9,NODE 44,NODE 58,Pipe Nodes
 Component Set,14,BRANCH,CHILLED WATER LOOP DEMAND BRANCH 1,COIL:COOLING:WATER,COIL COOLING WATER 1,NODE 46,NODE 52,Water Nodes
 Component Set,15,BRANCH,CHILLED WATER LOOP DEMAND BRANCH 2,PIPE:ADIABATIC,PIPE ADIABATIC 8,NODE 54,NODE 55,Pipe Nodes
 Component Set,16,BRANCH,CHILLED WATER LOOP DEMAND BYPASS BRANCH,PIPE:ADIABATIC,CHILLED WATER LOOP DEMAND BYPASS PIPE,CHILLED WATER LOOP DEMAND BYPASS PIPE INLET NODE,CHILLED WATER LOOP DEMAND BYPASS PIPE OUTLET NODE,Pipe Nodes
 Component Set,17,BRANCH,CHILLED WATER LOOP DEMAND OUTLET BRANCH,PIPE:ADIABATIC,PIPE ADIABATIC 10,NODE 59,NODE 45,Pipe Nodes
 Component Set,18,BRANCH,CONDENSER WATER LOOP SUPPLY INLET BRANCH,PUMP:VARIABLESPEED,PUMP VARIABLE SPEED 3,NODE 60,NODE 70,Water Nodes
 Component Set,19,BRANCH,CONDENSER WATER LOOP SUPPLY BRANCH 1,COOLINGTOWER:SINGLESPEED,COOLING TOWER SINGLE SPEED 1,NODE 62,NODE 66,Chilled Water Nodes
 Component Set,20,BRANCH,CONDENSER WATER LOOP SUPPLY BRANCH 2,PIPE:ADIABATIC,PIPE ADIABATIC 11,NODE 67,NODE 68,Pipe Nodes
 Component Set,21,BRANCH,CONDENSER WATER LOOP SUPPLY OUTLET BRANCH,PIPE:ADIABATIC,PIPE ADIABATIC 12,NODE 69,NODE 61,Pipe Nodes
 Component Set,22,BRANCH,CONDENSER WATER LOOP DEMAND INLET BRANCH,PIPE:ADIABATIC,PIPE ADIABATIC 14,NODE 63,NODE 74,Pipe Nodes
 Component Set,23,BRANCH,CONDENSER WATER LOOP DEMAND BRANCH 1,CHILLER:ELECTRIC:EIR,CHILLER ELECTRIC EIR 1,NODE 65,NODE 71,Condenser Water Nodes
 Component Set,24,BRANCH,CONDENSER WATER LOOP DEMAND BRANCH 2,PIPE:ADIABATIC,PIPE ADIABATIC 13,NODE 72,NODE 73,Pipe Nodes
 Component Set,25,BRANCH,CONDENSER WATER LOOP DEMAND BYPASS BRANCH,PIPE:ADIABATIC,CONDENSER WATER LOOP DEMAND BYPASS PIPE,CONDENSER WATER LOOP DEMAND BYPASS PIPE INLET NODE,CONDENSER WATER LOOP DEMAND BYPASS PIPE OUTLET NODE,Pipe Nodes
 Component Set,26,BRANCH,CONDENSER WATER LOOP DEMAND OUTLET BRANCH,PIPE:ADIABATIC,PIPE ADIABATIC 15,NODE 75,NODE 64,Pipe Nodes
 Component Set,27,BRANCH,HOT WATER LOOP SUPPLY INLET BRANCH,PUMP:VARIABLESPEED,PUMP VARIABLE SPEED 1,NODE 25,NODE 31,Water Nodes
 Component Set,28,BRANCH,HOT WATER LOOP SUPPLY BRANCH 1,BOILER:HOTWATER,BOILER HOT WATER 1,NODE 27,NODE 32,Hot Water Nodes
 Component Set,29,BRANCH,HOT WATER LOOP SUPPLY BRANCH 2,PIPE:ADIABATIC,PIPE ADIABATIC 1,NODE 33,NODE 34,Pipe Nodes
 Component Set,30,BRANCH,HOT WATER LOOP SUPPLY OUTLET BRANCH,PIPE:ADIABATIC,PIPE ADIABATIC 5,NODE 40,NODE 26,Pipe Nodes
 Component Set,31,BRANCH,HOT WATER LOOP DEMAND INLET BRANCH,PIPE:ADIABATIC,PIPE ADIABATIC 3,NODE 28,NODE 39,Pipe Nodes
 Component Set,32,BRANCH,HOT WATER LOOP DEMAND BRANCH 1,PIPE:ADIABATIC,PIPE ADIABATIC 2,NODE 30,NODE 35,Pipe Nodes
 Component Set,33,BRANCH,HOT WATER LOOP DEMAND BRANCH 2,COIL:HEATING:WATER,COIL HEATING WATER 1,NODE 36,NODE 37,Water Nodes
 Component Set,34,BRANCH,HOT WATER LOOP DEMAND BRANCH 3,COIL:HEATING:WATER,COIL HEATING WATER 2,NODE 56,NODE 57,Water Nodes
 Component Set,35,BRANCH,HOT WATER LOOP DEMAND BYPASS BRANCH,PIPE:ADIABATIC,HOT WATER LOOP DEMAND BYPASS PIPE,HOT WATER LOOP DEMAND BYPASS PIPE INLET NODE,HOT WATER LOOP DEMAND BYPASS PIPE OUTLET NODE,Pipe Nodes
 Component Set,36,BRANCH,HOT WATER LOOP DEMAND OUTLET BRANCH,PIPE:ADIABATIC,PIPE ADIABATIC 4,NODE 38,NODE 29,Pipe Nodes
 Component Set,37,ZONEHVAC:AIRDISTRIBUTIONUNIT,ADU AIR TERMINAL SINGLE DUCT VAV REHEAT 1,AIRTERMINAL:SINGLEDUCT:VAV:REHEAT,AIR TERMINAL SINGLE DUCT VAV REHEAT 1,NODE 53,NODE 19,Air Nodes
 Component Set,38,AIRTERMINAL:SINGLEDUCT:VAV:REHEAT,AIR TERMINAL SINGLE DUCT VAV REHEAT 1,COIL:HEATING:WATER,COIL HEATING WATER 2,AIR TERMINAL SINGLE DUCT VAV REHEAT 1 DAMPER OUTLET,NODE 19,Air Nodes
 Component Set,39,AIRLOOPHVAC:OUTDOORAIRSYSTEM,AIR LOOP HVAC OUTDOOR AIR SYSTEM 1,EVAPORATIVECOOLER:DIRECT:RESEARCHSPECIAL,EVAPORATIVE COOLER DIRECT RESEARCH SPECIAL 1,NODE 2,NODE 14,Evap Air Nodes
 Component Set,40,AIRLOOPHVAC:OUTDOORAIRSYSTEM,AIR LOOP HVAC OUTDOOR AIR SYSTEM 1,OUTDOORAIR:MIXER,AIR LOOP HVAC OUTDOOR AIR SYSTEM 1 OUTDOOR AIR MIXER,NODE 14,NODE 12,Air Nodes
 Component Set,41,AIRLOOPHVAC:OUTDOORAIRSYSTEM,AIR LOOP HVAC OUTDOOR AIR SYSTEM 2,OUTDOORAIR:MIXER,AIR LOOP HVAC OUTDOOR AIR SYSTEM 2 OUTDOOR AIR MIXER,NODE 20,NODE 22,Air Nodes
 Component Set,42,COILSYSTEM:COOLING:DX,COIL COOLING DX SINGLE SPEED 1 COILSYSTEM,COIL:COOLING:DX:SINGLESPEED,COIL COOLING DX SINGLE SPEED 1,NODE 12,NODE 11,Air Nodes
! ===============================================================
! <# Plant Loops>,<Number of Plant Loops>
 #Plant Loops,3
! <Plant Loop>,<Plant Loop Name>,<Loop Type>,<Inlet Node Name>,<Outlet Node Name>,<Branch List>,<Connector List>
! <Plant Loop Connector>,<Connector Type>,<Connector Name>,<Loop Name>,<Loop Type>,<Number of Inlets/Outlets>
! <Plant Loop Connector Branches>,<Connector Node Count>,<Connector Type>,<Connector Name>,<Inlet Branch>,<Outlet Branch>,<Loop Name>,<Loop Type>
! <Plant Loop Connector Nodes>,<Connector Node Count>,<Connector Type>,<Connector Name>,<Inlet Node>,<Outlet Node>,<Loop Name>,<Loop Type>
! <Plant Loop Supply Connection>,<Plant Loop Name>,<Supply Side Outlet Node Name>,<Demand Side Inlet Node Name>
! <Plant Loop Return Connection>,<Plant Loop Name>,<Demand Side Outlet Node Name>,<Supply Side Inlet Node Name>
 Plant Loop,CHILLED WATER LOOP,Demand,NODE 44,NODE 45,CHILLED WATER LOOP DEMAND BRANCHES,CHILLED WATER LOOP DEMAND CONNECTOR LIST
   Plant Loop Connector,Splitter,CHILLED WATER LOOP DEMAND SPLITTER,CHILLED WATER LOOP,Demand,3
     Plant Loop Connector Branches,1,Splitter,CHILLED WATER LOOP DEMAND SPLITTER,CHILLED WATER LOOP DEMAND INLET BRANCH,CHILLED WATER LOOP DEMAND BRANCH 1,CHILLED WATER LOOP,Demand
     Plant Loop Connector Nodes,   1,Splitter,CHILLED WATER LOOP DEMAND SPLITTER,NODE 58,NODE 46,CHILLED WATER LOOP,Demand
     Plant Loop Connector Branches,2,Splitter,CHILLED WATER LOOP DEMAND SPLITTER,CHILLED WATER LOOP DEMAND INLET BRANCH,CHILLED WATER LOOP DEMAND BRANCH 2,CHILLED WATER LOOP,Demand
     Plant Loop Connector Nodes,   2,Splitter,CHILLED WATER LOOP DEMAND SPLITTER,NODE 58,NODE 54,CHILLED WATER LOOP,Demand
     Plant Loop Connector Branches,3,Splitter,CHILLED WATER LOOP DEMAND SPLITTER,CHILLED WATER LOOP DEMAND INLET BRANCH,CHILLED WATER LOOP DEMAND BYPASS BRANCH,CHILLED WATER LOOP,Demand
     Plant Loop Connector Nodes,   3,Splitter,CHILLED WATER LOOP DEMAND SPLITTER,NODE 58,CHILLED WATER LOOP DEMAND BYPASS PIPE INLET NODE,CHILLED WATER LOOP,Demand
   Plant Loop Connector,Mixer,CHILLED WATER LOOP DEMAND MIXER,CHILLED WATER LOOP,Demand,3
     Plant Loop Connector Branches,1,Mixer,CHILLED WATER LOOP DEMAND MIXER,CHILLED WATER LOOP DEMAND BRANCH 1,CHILLED WATER LOOP DEMAND OUTLET BRANCH,CHILLED WATER LOOP,Demand
     Plant Loop Connector Nodes,   1,Mixer,CHILLED WATER LOOP DEMAND MIXER,NODE 52,NODE 59,CHILLED WATER LOOP,Demand
     Plant Loop Connector Branches,2,Mixer,CHILLED WATER LOOP DEMAND MIXER,CHILLED WATER LOOP DEMAND BRANCH 2,CHILLED WATER LOOP DEMAND OUTLET BRANCH,CHILLED WATER LOOP,Demand
     Plant Loop Connector Nodes,   2,Mixer,CHILLED WATER LOOP DEMAND MIXER,NODE 55,NODE 59,CHILLED WATER LOOP,Demand
     Plant Loop Connector Branches,3,Mixer,CHILLED WATER LOOP DEMAND MIXER,CHILLED WATER LOOP DEMAND BYPASS BRANCH,CHILLED WATER LOOP DEMAND OUTLET BRANCH,CHILLED WATER LOOP,Demand
     Plant Loop Connector Nodes,   3,Mixer,CHILLED WATER LOOP DEMAND MIXER,CHILLED WATER LOOP DEMAND BYPASS PIPE OUTLET NODE,NODE 59,CHILLED WATER LOOP,Demand
 Plant Loop,CHILLED WATER LOOP,Supply,NODE 41,NODE 42,CHILLED WATER LOOP SUPPLY BRANCHES,CHILLED WATER LOOP SUPPLY CONNECTOR LIST
   Plant Loop Connector,Splitter,CHILLED WATER LOOP SUPPLY SPLITTER,CHILLED WATER LOOP,Supply,2
     Plant Loop Connector Branches,1,Splitter,CHILLED WATER LOOP SUPPLY SPLITTER,CHILLED WATER LOOP SUPPLY INLET BRANCH,CHILLED WATER LOOP SUPPLY BRANCH 1,CHILLED WATER LOOP,Supply
     Plant Loop Connector Nodes,   1,Splitter,CHILLED WATER LOOP SUPPLY SPLITTER,NODE 47,NODE 43,CHILLED WATER LOOP,Supply
     Plant Loop Connector Branches,2,Splitter,CHILLED WATER LOOP SUPPLY SPLITTER,CHILLED WATER LOOP SUPPLY INLET BRANCH,CHILLED WATER LOOP SUPPLY BRANCH 2,CHILLED WATER LOOP,Supply
     Plant Loop Connector Nodes,   2,Splitter,CHILLED WATER LOOP SUPPLY SPLITTER,NODE 47,NODE 49,CHILLED WATER LOOP,Supply
   Plant Loop Connector,Mixer,CHILLED WATER LOOP SUPPLY MIXER,CHILLED WATER LOOP,Supply,2
     Plant Loop Connector Branches,1,Mixer,CHILLED WATER LOOP SUPPLY MIXER,CHILLED WATER LOOP SUPPLY BRANCH 1,CHILLED WATER LOOP SUPPLY OUTLET BRANCH,CHILLED WATER LOOP,Supply
     Plant Loop Connector Nodes,   1,Mixer,CHILLED WATER LOOP SUPPLY MIXER,NODE 48,NODE 51,CHILLED WATER LOOP,Supply
     Plant Loop Connector Branches,2,Mixer,CHILLED WATER LOOP SUPPLY MIXER,CHILLED WATER LOOP SUPPLY BRANCH 2,CHILLED WATER LOOP SUPPLY OUTLET BRANCH,CHILLED WATER LOOP,Supply
     Plant Loop Connector Nodes,   2,Mixer,CHILLED WATER LOOP SUPPLY MIXER,NODE 50,NODE 51,CHILLED WATER LOOP,Supply
 Plant Loop Supply Connection,CHILLED WATER LOOP,NODE 42,NODE 44
 Plant Loop Return Connection,CHILLED WATER LOOP,NODE 45,NODE 41
 Plant Loop,CONDENSER WATER LOOP,Demand,NODE 63,NODE 64,CONDENSER WATER LOOP DEMAND BRANCHES,CONDENSER WATER LOOP DEMAND CONNECTOR LIST
   Plant Loop Connector,Splitter,CONDENSER WATER LOOP DEMAND SPLITTER,CONDENSER WATER LOOP,Demand,3
     Plant Loop Connector Branches,1,Splitter,CONDENSER WATER LOOP DEMAND SPLITTER,CONDENSER WATER LOOP DEMAND INLET BRANCH,CONDENSER WATER LOOP DEMAND BRANCH 1,CONDENSER WATER LOOP,Demand
     Plant Loop Connector Nodes,   1,Splitter,CONDENSER WATER LOOP DEMAND SPLITTER,NODE 74,NODE 65,CONDENSER WATER LOOP,Demand
     Plant Loop Connector Branches,2,Splitter,CONDENSER WATER LOOP DEMAND SPLITTER,CONDENSER WATER LOOP DEMAND INLET BRANCH,CONDENSER WATER LOOP DEMAND BRANCH 2,CONDENSER WATER LOOP,Demand
     Plant Loop Connector Nodes,   2,Splitter,CONDENSER WATER LOOP DEMAND SPLITTER,NODE 74,NODE 72,CONDENSER WATER LOOP,Demand
     Plant Loop Connector Branches,3,Splitter,CONDENSER WATER LOOP DEMAND SPLITTER,CONDENSER WATER LOOP DEMAND INLET BRANCH,CONDENSER WATER LOOP DEMAND BYPASS BRANCH,CONDENSER WATER LOOP,Demand
     Plant Loop Connector Nodes,   3,Splitter,CONDENSER WATER LOOP DEMAND SPLITTER,NODE 74,CONDENSER WATER LOOP DEMAND BYPASS PIPE INLET NODE,CONDENSER WATER LOOP,Demand
   Plant Loop Connector,Mixer,CONDENSER WATER LOOP DEMAND MIXER,CONDENSER WATER LOOP,Demand,3
     Plant Loop Connector Branches,1,Mixer,CONDENSER WATER LOOP DEMAND MIXER,CONDENSER WATER LOOP DEMAND BRANCH 1,CONDENSER WATER LOOP DEMAND OUTLET BRANCH,CONDENSER WATER LOOP,Demand
     Plant Loop Connector Nodes,   1,Mixer,CONDENSER WATER LOOP DEMAND MIXER,NODE 71,NODE 75,CONDENSER WATER LOOP,Demand
     Plant Loop Connector Branches,2,Mixer,CONDENSER WATER LOOP DEMAND MIXER,CONDENSER WATER LOOP DEMAND BRANCH 2,CONDENSER WATER LOOP DEMAND OUTLET BRANCH,CONDENSER WATER LOOP,Demand
     Plant Loop Connector Nodes,   2,Mixer,CONDENSER WATER LOOP DEMAND MIXER,NODE 73,NODE 75,CONDENSER WATER LOOP,Demand
     Plant Loop Connector Branches,3,Mixer,CONDENSER WATER LOOP DEMAND MIXER,CONDENSER WATER LOOP DEMAND BYPASS BRANCH,CONDENSER WATER LOOP DEMAND OUTLET BRANCH,CONDENSER WATER LOOP,Demand
     Plant Loop Connector Nodes,   3,Mixer,CONDENSER WATER LOOP DEMAND MIXER,CONDENSER WATER LOOP DEMAND BYPASS PIPE OUTLET NODE,NODE 75,CONDENSER WATER LOOP,Demand
 Plant Loop,CONDENSER WATER LOOP,Supply,NODE 60,NODE 61,CONDENSER WATER LOOP SUPPLY BRANCHES,CONDENSER WATER LOOP SUPPLY CONNECTOR LIST
   Plant Loop Connector,Splitter,CONDENSER WATER LOOP SUPPLY SPLITTER,CONDENSER WATER LOOP,Supply,2
     Plant Loop Connector Branches,1,Splitter,CONDENSER WATER LOOP SUPPLY SPLITTER,CONDENSER WATER LOOP SUPPLY INLET BRANCH,CONDENSER WATER LOOP SUPPLY BRANCH 1,CONDENSER WATER LOOP,Supply
     Plant Loop Connector Nodes,   1,Splitter,CONDENSER WATER LOOP SUPPLY SPLITTER,NODE 70,NODE 62,CONDENSER WATER LOOP,Supply
     Plant Loop Connector Branches,2,Splitter,CONDENSER WATER LOOP SUPPLY SPLITTER,CONDENSER WATER LOOP SUPPLY INLET BRANCH,CONDENSER WATER LOOP SUPPLY BRANCH 2,CONDENSER WATER LOOP,Supply
     Plant Loop Connector Nodes,   2,Splitter,CONDENSER WATER LOOP SUPPLY SPLITTER,NODE 70,NODE 67,CONDENSER WATER LOOP,Supply
   Plant Loop Connector,Mixer,CONDENSER WATER LOOP SUPPLY MIXER,CONDENSER WATER LOOP,Supply,2
     Plant Loop Connector Branches,1,Mixer,CONDENSER WATER LOOP SUPPLY MIXER,CONDENSER WATER LOOP SUPPLY BRANCH 1,CONDENSER WATER LOOP SUPPLY OUTLET BRANCH,CONDENSER WATER LOOP,Supply
     Plant Loop Connector Nodes,   1,Mixer,CONDENSER WATER LOOP SUPPLY MIXER,NODE 66,NODE 69,CONDENSER WATER LOOP,Supply
     Plant Loop Connector Branches,2,Mixer,CONDENSER WATER LOOP SUPPLY MIXER,CONDENSER WATER LOOP SUPPLY BRANCH 2,CONDENSER WATER LOOP SUPPLY OUTLET BRANCH,CONDENSER WATER LOOP,Supply
     Plant Loop Connector Nodes,   2,Mixer,CONDENSER WATER LOOP SUPPLY MIXER,NODE 68,NODE 69,CONDENSER WATER LOOP,Supply
 Plant Loop Supply Connection,CONDENSER WATER LOOP,NODE 61,NODE 63
 Plant Loop Return Connection,CONDENSER WATER LOOP,NODE 64,NODE 60
 Plant Loop,HOT WATER LOOP,Demand,NODE 28,NODE 29,HOT WATER LOOP DEMAND BRANCHES,HOT WATER LOOP DEMAND CONNECTOR LIST
   Plant Loop Connector,Splitter,HOT WATER LOOP DEMAND SPLITTER,HOT WATER LOOP,Demand,4
     Plant Loop Connector Branches,1,Splitter,HOT WATER LOOP DEMAND SPLITTER,HOT WATER LOOP DEMAND INLET BRANCH,HOT WATER LOOP DEMAND BRANCH 1,HOT WATER LOOP,Demand
     Plant Loop Connector Nodes,   1,Splitter,HOT WATER LOOP DEMAND SPLITTER,NODE 39,NODE 30,HOT WATER LOOP,Demand
     Plant Loop Connector Branches,2,Splitter,HOT WATER LOOP DEMAND SPLITTER,HOT WATER LOOP DEMAND INLET BRANCH,HOT WATER LOOP DEMAND BRANCH 2,HOT WATER LOOP,Demand
     Plant Loop Connector Nodes,   2,Splitter,HOT WATER LOOP DEMAND SPLITTER,NODE 39,NODE 36,HOT WATER LOOP,Demand
     Plant Loop Connector Branches,3,Splitter,HOT WATER LOOP DEMAND SPLITTER,HOT WATER LOOP DEMAND INLET BRANCH,HOT WATER LOOP DEMAND BRANCH 3,HOT WATER LOOP,Demand
     Plant Loop Connector Nodes,   3,Splitter,HOT WATER LOOP DEMAND SPLITTER,NODE 39,NODE 56,HOT WATER LOOP,Demand
     Plant Loop Connector Branches,4,Splitter,HOT WATER LOOP DEMAND SPLITTER,HOT WATER LOOP DEMAND INLET BRANCH,HOT WATER LOOP DEMAND BYPASS BRANCH,HOT WATER LOOP,Demand
     Plant Loop Connector Nodes,   4,Splitter,HOT WATER LOOP DEMAND SPLITTER,NODE 39,HOT WATER LOOP DEMAND BYPASS PIPE INLET NODE,HOT WATER LOOP,Demand
   Plant Loop Connector,Mixer,HOT WATER LOOP DEMAND MIXER,HOT WATER LOOP,Demand,4
     Plant Loop Connector Branches,1,Mixer,HOT WATER LOOP DEMAND MIXER,HOT WATER LOOP DEMAND BRANCH 1,HOT WATER LOOP DEMAND OUTLET BRANCH,HOT WATER LOOP,Demand
     Plant Loop Connector Nodes,   1,Mixer,HOT WATER LOOP DEMAND MIXER,NODE 35,NODE 38,HOT WATER LOOP,Demand
     Plant Loop Connector Branches,2,Mixer,HOT WATER LOOP DEMAND MIXER,HOT WATER LOOP DEMAND BRANCH 2,HOT WATER LOOP DEMAND OUTLET BRANCH,HOT WATER LOOP,Demand
     Plant Loop Connector Nodes,   2,Mixer,HOT WATER LOOP DEMAND MIXER,NODE 37,NODE 38,HOT WATER LOOP,Demand
     Plant Loop Connector Branches,3,Mixer,HOT WATER LOOP DEMAND MIXER,HOT WATER LOOP DEMAND BRANCH 3,HOT WATER LOOP DEMAND OUTLET BRANCH,HOT WATER LOOP,Demand
     Plant Loop Connector Nodes,   3,Mixer,HOT WATER LOOP DEMAND MIXER,NODE 57,NODE 38,HOT WATER LOOP,Demand
     Plant Loop Connector Branches,4,Mixer,HOT WATER LOOP DEMAND MIXER,HOT WATER LOOP DEMAND BYPASS BRANCH,HOT WATER LOOP DEMAND OUTLET BRANCH,HOT WATER LOOP,Demand
     Plant Loop Connector Nodes,   4,Mixer,HOT WATER LOOP DEMAND MIXER,HOT WATER LOOP DEMAND BYPASS PIPE OUTLET NODE,NODE 38,HOT WATER LOOP,Demand
 Plant Loop,HOT WATER LOOP,Supply,NODE 25,NODE 26,HOT WATER LOOP SUPPLY BRANCHES,HOT WATER LOOP SUPPLY CONNECTOR LIST
   Plant Loop Connector,Splitter,HOT WATER LOOP SUPPLY SPLITTER,HOT WATER LOOP,Supply,2
     Plant Loop Connector Branches,1,Splitter,HOT WATER LOOP SUPPLY SPLITTER,HOT WATER LOOP SUPPLY INLET BRANCH,HOT WATER LOOP SUPPLY BRANCH 1,HOT WATER LOOP,Supply
     Plant Loop Connector Nodes,   1,Splitter,HOT WATER LOOP SUPPLY SPLITTER,NODE 31,NODE 27,HOT WATER LOOP,Supply
     Plant Loop Connector Branches,2,Splitter,HOT WATER LOOP SUPPLY SPLITTER,HOT WATER LOOP SUPPLY INLET BRANCH,HOT WATER LOOP SUPPLY BRANCH 2,HOT WATER LOOP,Supply
     Plant Loop Connector Nodes,   2,Splitter,HOT WATER LOOP SUPPLY SPLITTER,NODE 31,NODE 33,HOT WATER LOOP,Supply
   Plant Loop Connector,Mixer,HOT WATER LOOP SUPPLY MIXER,HOT WATER LOOP,Supply,2
     Plant Loop Connector Branches,1,Mixer,HOT WATER LOOP SUPPLY MIXER,HOT WATER LOOP SUPPLY BRANCH 1,HOT WATER LOOP SUPPLY OUTLET BRANCH,HOT WATER LOOP,Supply
     Plant Loop Connector Nodes,   1,Mixer,HOT WATER LOOP SUPPLY MIXER,NODE 32,NODE 40,HOT WATER LOOP,Supply
     Plant Loop Connector Branches,2,Mixer,HOT WATER LOOP SUPPLY MIXER,HOT WATER LOOP SUPPLY BRANCH 2,HOT WATER LOOP SUPPLY OUTLET BRANCH,HOT WATER LOOP,Supply
     Plant Loop Connector Nodes,   2,Mixer,HOT WATER LOOP SUPPLY MIXER,NODE 34,NODE 40,HOT WATER LOOP,Supply
 Plant Loop Supply Connection,HOT WATER LOOP,NODE 26,NODE 28
 Plant Loop Return Connection,HOT WATER LOOP,NODE 29,NODE 25
! ===============================================================
! <# Condenser Loops>,<Number of Condenser Loops>
 #Condenser Loops,0
! <Condenser Loop>,<Condenser Loop Name>,<Loop Type>,<Inlet Node Name>,<Outlet Node Name>,<Branch List>,<Connector List>
! <Condenser Loop Connector>,<Connector Type>,<Connector Name>,<Loop Name>,<Loop Type>,<Number of Inlets/Outlets>
! <Condenser Loop Connector Branches>,<Connector Node Count>,<Connector Type>,<Connector Name>,<Inlet Branch>,<Outlet Branch>,<Loop Name>,<Loop Type>
! <Condenser Loop Connector Nodes>,<Connector Node Count>,<Connector Type>,<Connector Name>,<Inlet Node>,<Outlet Node>,<Loop Name>,<Loop Type>
! <Condenser Loop Supply Connection>,<Condenser Loop Name>,<Supply Side Outlet Node Name>,<Demand Side Inlet Node Name>
! <Condenser Loop Return Connection>,<Condenser Loop Name>,<Demand Side Outlet Node Name>,<Supply Side Inlet Node Name>
! ===============================================================
! <# Controlled Zones>,<Number of Controlled Zones>
 #Controlled Zones,2
! <Controlled Zone>,<Controlled Zone Name>,<Equip List Name>,<Control List Name>,<Zone Node Name>,<# Inlet Nodes>,<# Exhaust Nodes>,<# Return Nodes>
! <Controlled Zone Inlet>,<Inlet Node Count>,<Controlled Zone Name>,<Supply Air Inlet Node Name>,<SD Sys:Cooling/Heating [DD:Cooling] Inlet Node Name>,<DD Sys:Heating Inlet Node Name>
! <Controlled Zone Exhaust>,<Exhaust Node Count>,<Controlled Zone Name>,<Exhaust Air Node Name>
 Controlled Zone,THERMAL ZONE 1,THERMAL ZONE 1 EQUIPMENT LIST,,NODE 1,1,0,1
   Controlled Zone Inlet,1,THERMAL ZONE 1,NODE 8,NODE 8,N/A
   Controlled Zone Return,1,THERMAL ZONE 1,NODE 9
 Controlled Zone,THERMAL ZONE 2,THERMAL ZONE 2 EQUIPMENT LIST,,NODE 13,1,1,1
   Controlled Zone Inlet,1,THERMAL ZONE 2,NODE 19,NODE 53,N/A
   Controlled Zone Exhaust,1,THERMAL ZONE 2,NODE 77
   Controlled Zone Return,1,THERMAL ZONE 2,NODE 76
! ===============================================================
! <#Zone Equipment Lists>,<Number of Zone Equipment Lists>
 #Zone Equipment Lists,2
! <Zone Equipment List>,<Zone Equipment List Count>,<Zone Equipment List Name>,<Zone Name>,<Number of Components>
! <Zone Equipment Component>,<Component Count>,<Component Type>,<Component Name>,<Zone Name>,<Heating Priority>,<Cooling Priority>
 Zone Equipment List,1,THERMAL ZONE 1 EQUIPMENT LIST,THERMAL ZONE 1,1
   Zone Equipment Component,1,AIRTERMINAL:SINGLEDUCT:UNCONTROLLED,AIR TERMINAL SINGLE DUCT UNCONTROLLED 1,THERMAL ZONE 1,1,1
 Zone Equipment List,2,THERMAL ZONE 2 EQUIPMENT LIST,THERMAL ZONE 2,2
   Zone Equipment Component,1,ZONEHVAC:AIRDISTRIBUTIONUNIT,ADU AIR TERMINAL SINGLE DUCT VAV REHEAT 1,THERMAL ZONE 2,1,1
   Zone Equipment Component,2,FAN:ZONEEXHAUST,ZONE EXHAUST FAN,THERMAL ZONE 2,2,2
! ===============================================================
! <#AirLoopHVACs>,<Number of AirLoopHVACs>
 #AirLoopHVACs,2
! <AirLoopHVAC>,<Air Loop Name>,<# Return Nodes>,<# Supply Nodes>,<# Zones Cooled>,<# Zones Heated>,<Outdoor Air Used>
! <AirLoop Return Connections>,<Connection Count>,<AirLoopHVAC Name>,<Zn Eqp Return Node #>,<Zn Eqp Return Node Name>,<AirLoop Return Node #>,<Air Loop Return Node Name>
! <AirLoop Supply Connections>,<Connection Count>,<AirLoopHVAC Name>,<Zn Eqp Supply Node #>,<Zn Eqp Supply Node Name>,<AirLoop Supply Node #>,<Air Loop Supply Node Name>
! <Cooled Zone Info>,<Cooled Zone Count>,<Cooled Zone Name>,<Cooled Zone Inlet Node #>,<Cooled Zone Inlet Node Name>,<AirLoopHVAC Name>
! <Heated Zone Info>,<Heated Zone Count>,<Heated Zone Name>,<Heated Zone Inlet Node #>,<Heated Zone Inlet Node Name>,<AirLoopHVAC Name>
! <Outdoor Air Connections>,<OA Inlet Node #>,<OA Return Air Inlet Node Name>,<OA Outlet Node #>,<OA Mixed Air Outlet Node Name>,<AirLoopHVAC Name>
! <AirLoopHVAC Connector>,<Connector Type>,<Connector Name>,<Loop Name>,<Loop Type>,<Number of Inlets/Outlets>
! <AirLoopHVAC Connector Branches>,<Connector Node Count>,<Connector Type>,<Connector Name>,<Inlet Branch>,<Outlet Branch>,<Loop Name>,<Loop Type>
! <AirLoopHVAC Connector Nodes>,<Connector Node Count>,<Connector Type>,<Connector Name>,<Inlet Node>,<Outlet Node>,<Loop Name>,<Loop Type>
 AirLoopHVAC,AIR LOOP HVAC 1,1,1,1,0,Yes
   AirLoop Return Connections,1,AIR LOOP HVAC 1,76,NODE 7,8,NODE 4
   AirLoop Supply Connections,1,AIR LOOP HVAC 1,5,NODE 6,4,NODE 5
   Cooled Zone Info,1,THERMAL ZONE 1,1,NODE 8,AIR LOOP HVAC 1
   Outdoor Air Connections,8,NODE 4,9,NODE 12,AIR LOOP HVAC 1
 AirLoopHVAC,VAV WITH REHEAT,1,1,1,0,Yes
   AirLoop Return Connections,1,VAV WITH REHEAT,77,NODE 18,12,NODE 15
   AirLoop Supply Connections,1,VAV WITH REHEAT,7,NODE 17,6,NODE 16
   Cooled Zone Info,1,THERMAL ZONE 2,2,NODE 19,VAV WITH REHEAT
   Outdoor Air Connections,12,NODE 15,13,NODE 22,VAV WITH REHEAT
! ===============================================================
! <#Parent Node Connections>,<Number of Parent Node Connections>
 #Parent Node Connections,98
! <Parent Node Connection>,<Node Name>,<Node ObjectType>,<Node ObjectName>,<Node ConnectionType>,<Node FluidStream>
 Parent Node Connection,NODE 4,BRANCH,AIR LOOP HVAC 1 MAIN BRANCH,Inlet,1
 Parent Node Connection,NODE 12,BRANCH,AIR LOOP HVAC 1 MAIN BRANCH,Internal,1
 Parent Node Connection,NODE 11,BRANCH,AIR LOOP HVAC 1 MAIN BRANCH,Internal,1
 Parent Node Connection,NODE 10,BRANCH,AIR LOOP HVAC 1 MAIN BRANCH,Internal,1
 Parent Node Connection,NODE 5,BRANCH,AIR LOOP HVAC 1 MAIN BRANCH,Outlet,1
 Parent Node Connection,NODE 15,BRANCH,VAV WITH REHEAT MAIN BRANCH,Inlet,1
 Parent Node Connection,NODE 22,BRANCH,VAV WITH REHEAT MAIN BRANCH,Internal,1
 Parent Node Connection,NODE 23,BRANCH,VAV WITH REHEAT MAIN BRANCH,Internal,1
 Parent Node Connection,NODE 24,BRANCH,VAV WITH REHEAT MAIN BRANCH,Internal,1
 Parent Node Connection,NODE 16,BRANCH,VAV WITH REHEAT MAIN BRANCH,Outlet,1
 Parent Node Connection,NODE 41,BRANCH,CHILLED WATER LOOP SUPPLY INLET BRANCH,Inlet,1
 Parent Node Connection,NODE 47,BRANCH,CHILLED WATER LOOP SUPPLY INLET BRANCH,Outlet,1
 Parent Node Connection,NODE 43,BRANCH,CHILLED WATER LOOP SUPPLY BRANCH 1,Inlet,1
 Parent Node Connection,NODE 48,BRANCH,CHILLED WATER LOOP SUPPLY BRANCH 1,Outlet,1
 Parent Node Connection,NODE 49,BRANCH,CHILLED WATER LOOP SUPPLY BRANCH 2,Inlet,1
 Parent Node Connection,NODE 50,BRANCH,CHILLED WATER LOOP SUPPLY BRANCH 2,Outlet,1
 Parent Node Connection,NODE 51,BRANCH,CHILLED WATER LOOP SUPPLY OUTLET BRANCH,Inlet,1
 Parent Node Connection,NODE 42,BRANCH,CHILLED WATER LOOP SUPPLY OUTLET BRANCH,Outlet,1
 Parent Node Connection,NODE 44,BRANCH,CHILLED WATER LOOP DEMAND INLET BRANCH,Inlet,1
 Parent Node Connection,NODE 58,BRANCH,CHILLED WATER LOOP DEMAND INLET BRANCH,Outlet,1
 Parent Node Connection,NODE 46,BRANCH,CHILLED WATER LOOP DEMAND BRANCH 1,Inlet,1
 Parent Node Connection,NODE 52,BRANCH,CHILLED WATER LOOP DEMAND BRANCH 1,Outlet,1
 Parent Node Connection,NODE 54,BRANCH,CHILLED WATER LOOP DEMAND BRANCH 2,Inlet,1
 Parent Node Connection,NODE 55,BRANCH,CHILLED WATER LOOP DEMAND BRANCH 2,Outlet,1
 Parent Node Connection,CHILLED WATER LOOP DEMAND BYPASS PIPE INLET NODE,BRANCH,CHILLED WATER LOOP DEMAND BYPASS BRANCH,Inlet,1
 Parent Node Connection,CHILLED WATER LOOP DEMAND BYPASS PIPE OUTLET NODE,BRANCH,CHILLED WATER LOOP DEMAND BYPASS BRANCH,Outlet,1
 Parent Node Connection,NODE 59,BRANCH,CHILLED WATER LOOP DEMAND OUTLET BRANCH,Inlet,1
 Parent Node Connection,NODE 45,BRANCH,CHILLED WATER LOOP DEMAND OUTLET BRANCH,Outlet,1
 Parent Node Connection,NODE 60,BRANCH,CONDENSER WATER LOOP SUPPLY INLET BRANCH,Inlet,1
 Parent Node Connection,NODE 70,BRANCH,CONDENSER WATER LOOP SUPPLY INLET BRANCH,Outlet,1
 Parent Node Connection,NODE 62,BRANCH,CONDENSER WATER LOOP SUPPLY BRANCH 1,Inlet,1
 Parent Node Connection,NODE 66,BRANCH,CONDENSER WATER LOOP SUPPLY BRANCH 1,Outlet,1
 Parent Node Connection,NODE 67,BRANCH,CONDENSER WATER LOOP SUPPLY BRANCH 2,Inlet,1
 Parent Node Connection,NODE 68,BRANCH,CONDENSER WATER LOOP SUPPLY BRANCH 2,Outlet,1
 Parent Node Connection,NODE 69,BRANCH,CONDENSER WATER LOOP SUPPLY OUTLET BRANCH,Inlet,1
 Parent Node Connection,NODE 61,BRANCH,CONDENSER WATER LOOP SUPPLY OUTLET BRANCH,Outlet,1
 Parent Node Connection,NODE 63,BRANCH,CONDENSER WATER LOOP DEMAND INLET BRANCH,Inlet,1
 Parent Node Connection,NODE 74,BRANCH,CONDENSER WATER LOOP DEMAND INLET BRANCH,Outlet,1
 Parent Node Connection,NODE 65,BRANCH,CONDENSER WATER LOOP DEMAND BRANCH 1,Inlet,1
 Parent Node Connection,NODE 71,BRANCH,CONDENSER WATER LOOP DEMAND BRANCH 1,Outlet,1
 Parent Node Connection,NODE 72,BRANCH,CONDENSER WATER LOOP DEMAND BRANCH 2,Inlet,1
 Parent Node Connection,NODE 73,BRANCH,CONDENSER WATER LOOP DEMAND BRANCH 2,Outlet,1
 Parent Node Connection,CONDENSER WATER LOOP DEMAND BYPASS PIPE INLET NODE,BRANCH,CONDENSER WATER LOOP DEMAND BYPASS BRANCH,Inlet,1
 Parent Node Connection,CONDENSER WATER LOOP DEMAND BYPASS PIPE OUTLET NODE,BRANCH,CONDENSER WATER LOOP DEMAND BYPASS BRANCH,Outlet,1
 Parent Node Connection,NODE 75,BRANCH,CONDENSER WATER LOOP DEMAND OUTLET BRANCH,Inlet,1
 Parent Node Connection,NODE 64,BRANCH,CONDENSER WATER LOOP DEMAND OUTLET BRANCH,Outlet,1
 Parent Node Connection,NODE 25,BRANCH,HOT WATER LOOP SUPPLY INLET BRANCH,Inlet,1
 Parent Node Connection,NODE 31,BRANCH,HOT WATER LOOP SUPPLY INLET BRANCH,Outlet,1
 Parent Node Connection,NODE 27,BRANCH,HOT WATER LOOP SUPPLY BRANCH 1,Inlet,1
 Parent Node Connection,NODE 32,BRANCH,HOT WATER LOOP SUPPLY BRANCH 1,Outlet,1
 Parent Node Connection,NODE 33,BRANCH,HOT WATER LOOP SUPPLY BRANCH 2,Inlet,1
 Parent Node Connection,NODE 34,BRANCH,HOT WATER LOOP SUPPLY BRANCH 2,Outlet,1
 Parent Node Connection,NODE 40,BRANCH,HOT WATER LOOP SUPPLY OUTLET BRANCH,Inlet,1
 Parent Node Connection,NODE 26,BRANCH,HOT WATER LOOP SUPPLY OUTLET BRANCH,Outlet,1
 Parent Node Connection,NODE 28,BRANCH,HOT WATER LOOP DEMAND INLET BRANCH,Inlet,1
 Parent Node Connection,NODE 39,BRANCH,HOT WATER LOOP DEMAND INLET BRANCH,Outlet,1
 Parent Node Connection,NODE 30,BRANCH,HOT WATER LOOP DEMAND BRANCH 1,Inlet,1
 Parent Node Connection,NODE 35,BRANCH,HOT WATER LOOP DEMAND BRANCH 1,Outlet,1
 Parent Node Connection,NODE 36,BRANCH,HOT WATER LOOP DEMAND BRANCH 2,Inlet,1
 Parent Node Connection,NODE 37,BRANCH,HOT WATER LOOP DEMAND BRANCH 2,Outlet,1
 Parent Node Connection,NODE 56,BRANCH,HOT WATER LOOP DEMAND BRANCH 3,Inlet,1
 Parent Node Connection,NODE 57,BRANCH,HOT WATER LOOP DEMAND BRANCH 3,Outlet,1
 Parent Node Connection,HOT WATER LOOP DEMAND BYPASS PIPE INLET NODE,BRANCH,HOT WATER LOOP DEMAND BYPASS BRANCH,Inlet,1
 Parent Node Connection,HOT WATER LOOP DEMAND BYPASS PIPE OUTLET NODE,BRANCH,HOT WATER LOOP DEMAND BYPASS BRANCH,Outlet,1
 Parent Node Connection,NODE 38,BRANCH,HOT WATER LOOP DEMAND OUTLET BRANCH,Inlet,1
 Parent Node Connection,NODE 29,BRANCH,HOT WATER LOOP DEMAND OUTLET BRANCH,Outlet,1
 Parent Node Connection,NODE 6,AIRLOOPHVAC:SUPPLYPATH,AIR LOOP HVAC 1 NODE 6 SUPPLY PATH,Inlet,1
 Parent Node Connection,NODE 17,AIRLOOPHVAC:SUPPLYPATH,VAV WITH REHEAT NODE 17 SUPPLY PATH,Inlet,1
 Parent Node Connection,NODE 7,AIRLOOPHVAC:RETURNPATH,AIR LOOP HVAC 1 RETURN PATH,Outlet,1
 Parent Node Connection,NODE 18,AIRLOOPHVAC:RETURNPATH,VAV WITH REHEAT RETURN PATH,Outlet,1
 Parent Node Connection,NODE 41,PLANTLOOP,CHILLED WATER LOOP,Inlet,1
 Parent Node Connection,NODE 42,PLANTLOOP,CHILLED WATER LOOP,Outlet,1
 Parent Node Connection,NODE 44,PLANTLOOP,CHILLED WATER LOOP,Inlet,1
 Parent Node Connection,NODE 45,PLANTLOOP,CHILLED WATER LOOP,Outlet,1
 Parent Node Connection,NODE 42,PLANTLOOP,CHILLED WATER LOOP,Sensor,1
 Parent Node Connection,NODE 60,PLANTLOOP,CONDENSER WATER LOOP,Inlet,1
 Parent Node Connection,NODE 61,PLANTLOOP,CONDENSER WATER LOOP,Outlet,1
 Parent Node Connection,NODE 63,PLANTLOOP,CONDENSER WATER LOOP,Inlet,1
 Parent Node Connection,NODE 64,PLANTLOOP,CONDENSER WATER LOOP,Outlet,1
 Parent Node Connection,NODE 61,PLANTLOOP,CONDENSER WATER LOOP,Sensor,1
 Parent Node Connection,NODE 25,PLANTLOOP,HOT WATER LOOP,Inlet,1
 Parent Node Connection,NODE 26,PLANTLOOP,HOT WATER LOOP,Outlet,1
 Parent Node Connection,NODE 28,PLANTLOOP,HOT WATER LOOP,Inlet,1
 Parent Node Connection,NODE 29,PLANTLOOP,HOT WATER LOOP,Outlet,1
 Parent Node Connection,NODE 26,PLANTLOOP,HOT WATER LOOP,Sensor,1
 Parent Node Connection,NODE 19,ZONEHVAC:AIRDISTRIBUTIONUNIT,ADU AIR TERMINAL SINGLE DUCT VAV REHEAT 1,Outlet,1
 Parent Node Connection,NODE 19,AIRTERMINAL:SINGLEDUCT:VAV:REHEAT,AIR TERMINAL SINGLE DUCT VAV REHEAT 1,Outlet,1
 Parent Node Connection,NODE 4,AIRLOOPHVAC,AIR LOOP HVAC 1,Inlet,1
 Parent Node Connection,NODE 7,AIRLOOPHVAC,AIR LOOP HVAC 1,Outlet,1
 Parent Node Connection,NODE 6,AIRLOOPHVAC,AIR LOOP HVAC 1,Inlet,1
 Parent Node Connection,NODE 5,AIRLOOPHVAC,AIR LOOP HVAC 1,Outlet,1
 Parent Node Connection,NODE 15,AIRLOOPHVAC,VAV WITH REHEAT,Inlet,1
 Parent Node Connection,NODE 18,AIRLOOPHVAC,VAV WITH REHEAT,Outlet,1
 Parent Node Connection,NODE 17,AIRLOOPHVAC,VAV WITH REHEAT,Inlet,1
 Parent Node Connection,NODE 16,AIRLOOPHVAC,VAV WITH REHEAT,Outlet,1
 Parent Node Connection,NODE 12,COILSYSTEM:COOLING:DX,COIL COOLING DX SINGLE SPEED 1 COILSYSTEM,Inlet,1
 Parent Node Connection,NODE 11,COILSYSTEM:COOLING:DX,COIL COOLING DX SINGLE SPEED 1 COILSYSTEM,Outlet,1
 Parent Node Connection,NODE 11,COILSYSTEM:COOLING:DX,COIL COOLING DX SINGLE SPEED 1 COILSYSTEM,Sensor,1
! ===============================================================
! <#Non-Parent Node Connections>,<Number of Non-Parent Node Connections>
 #Non-Parent Node Connections,201
! <Non-Parent Node Connection>,<Node Name>,<Node ObjectType>,<Node ObjectName>,<Node ConnectionType>,<Node FluidStream>
 Non-Parent Node Connection,NODE 1,ZONEHVAC:EQUIPMENTCONNECTIONS,THERMAL ZONE 1,ZoneNode,1
 Non-Parent Node Connection,NODE 8,ZONEHVAC:EQUIPMENTCONNECTIONS,THERMAL ZONE 1,ZoneInlet,1
 Non-Parent Node Connection,NODE 9,ZONEHVAC:EQUIPMENTCONNECTIONS,THERMAL ZONE 1,ZoneReturn,1
 Non-Parent Node Connection,NODE 13,ZONEHVAC:EQUIPMENTCONNECTIONS,THERMAL ZONE 2,ZoneNode,1
 Non-Parent Node Connection,NODE 19,ZONEHVAC:EQUIPMENTCONNECTIONS,THERMAL ZONE 2,ZoneInlet,1
 Non-Parent Node Connection,NODE 77,ZONEHVAC:EQUIPMENTCONNECTIONS,THERMAL ZONE 2,ZoneExhaust,1
 Non-Parent Node Connection,NODE 76,ZONEHVAC:EQUIPMENTCONNECTIONS,THERMAL ZONE 2,ZoneReturn,1
 Non-Parent Node Connection,NODE 2,OUTDOORAIR:NODELIST,OutdoorAir:NodeList,OutdoorAir,1
 Non-Parent Node Connection,NODE 20,OUTDOORAIR:NODELIST,OutdoorAir:NodeList,OutdoorAir,2
 Non-Parent Node Connection,MODEL OUTDOOR AIR NODE,OUTDOORAIR:NODE,OutdoorAir:Node,OutdoorAir,3
 Non-Parent Node Connection,NODE 16,SETPOINTMANAGER:SCHEDULED,SETPOINT MANAGER SCHEDULED 1,Setpoint,1
 Non-Parent Node Connection,NODE 42,SETPOINTMANAGER:SCHEDULED,SETPOINT MANAGER SCHEDULED 3,Setpoint,1
 Non-Parent Node Connection,NODE 26,SETPOINTMANAGER:SCHEDULED,SETPOINT MANAGER SCHEDULED 2,Setpoint,1
 Non-Parent Node Connection,NODE 1,SETPOINTMANAGER:SINGLEZONE:REHEAT,SETPOINT MANAGER SINGLE ZONE REHEAT 1,Sensor,1
 Non-Parent Node Connection,NODE 8,SETPOINTMANAGER:SINGLEZONE:REHEAT,SETPOINT MANAGER SINGLE ZONE REHEAT 1,Sensor,1
 Non-Parent Node Connection,NODE 5,SETPOINTMANAGER:SINGLEZONE:REHEAT,SETPOINT MANAGER SINGLE ZONE REHEAT 1,Setpoint,1
 Non-Parent Node Connection,NODE 5,SETPOINTMANAGER:MIXEDAIR,SETPOINT MANAGER MIXED AIR 4,Sensor,1
 Non-Parent Node Connection,NODE 10,SETPOINTMANAGER:MIXEDAIR,SETPOINT MANAGER MIXED AIR 4,Sensor,1
 Non-Parent Node Connection,NODE 14,SETPOINTMANAGER:MIXEDAIR,SETPOINT MANAGER MIXED AIR 4,Setpoint,1
 Non-Parent Node Connection,NODE 5,SETPOINTMANAGER:MIXEDAIR,NODE 14 OS DEFAULT SPM,Sensor,1
 Non-Parent Node Connection,NODE 10,SETPOINTMANAGER:MIXEDAIR,NODE 14 OS DEFAULT SPM,Sensor,1
 Non-Parent Node Connection,NODE 14,SETPOINTMANAGER:MIXEDAIR,NODE 14 OS DEFAULT SPM,Setpoint,1
 Non-Parent Node Connection,NODE 5,SETPOINTMANAGER:MIXEDAIR,SETPOINT MANAGER MIXED AIR 1,Sensor,1
 Non-Parent Node Connection,NODE 10,SETPOINTMANAGER:MIXEDAIR,SETPOINT MANAGER MIXED AIR 1,Sensor,1
 Non-Parent Node Connection,NODE 12,SETPOINTMANAGER:MIXEDAIR,SETPOINT MANAGER MIXED AIR 1,Setpoint,1
 Non-Parent Node Connection,NODE 5,SETPOINTMANAGER:MIXEDAIR,NODE 12 OS DEFAULT SPM,Sensor,1
 Non-Parent Node Connection,NODE 10,SETPOINTMANAGER:MIXEDAIR,NODE 12 OS DEFAULT SPM,Sensor,1
 Non-Parent Node Connection,NODE 12,SETPOINTMANAGER:MIXEDAIR,NODE 12 OS DEFAULT SPM,Setpoint,1
 Non-Parent Node Connection,NODE 5,SETPOINTMANAGER:MIXEDAIR,SETPOINT MANAGER MIXED AIR 2,Sensor,1
 Non-Parent Node Connection,NODE 10,SETPOINTMANAGER:MIXEDAIR,SETPOINT MANAGER MIXED AIR 2,Sensor,1
 Non-Parent Node Connection,NODE 11,SETPOINTMANAGER:MIXEDAIR,SETPOINT MANAGER MIXED AIR 2,Setpoint,1
 Non-Parent Node Connection,NODE 5,SETPOINTMANAGER:MIXEDAIR,NODE 11 OS DEFAULT SPM,Sensor,1
 Non-Parent Node Connection,NODE 10,SETPOINTMANAGER:MIXEDAIR,NODE 11 OS DEFAULT SPM,Sensor,1
 Non-Parent Node Connection,NODE 11,SETPOINTMANAGER:MIXEDAIR,NODE 11 OS DEFAULT SPM,Setpoint,1
 Non-Parent Node Connection,NODE 5,SETPOINTMANAGER:MIXEDAIR,SETPOINT MANAGER MIXED AIR 3,Sensor,1
 Non-Parent Node Connection,NODE 10,SETPOINTMANAGER:MIXEDAIR,SETPOINT MANAGER MIXED AIR 3,Sensor,1
 Non-Parent Node Connection,NODE 10,SETPOINTMANAGER:MIXEDAIR,SETPOINT MANAGER MIXED AIR 3,Setpoint,1
 Non-Parent Node Connection,NODE 5,SETPOINTMANAGER:MIXEDAIR,NODE 10 OS DEFAULT SPM,Sensor,1
 Non-Parent Node Connection,NODE 10,SETPOINTMANAGER:MIXEDAIR,NODE 10 OS DEFAULT SPM,Sensor,1
 Non-Parent Node Connection,NODE 10,SETPOINTMANAGER:MIXEDAIR,NODE 10 OS DEFAULT SPM,Setpoint,1
 Non-Parent Node Connection,NODE 16,SETPOINTMANAGER:MIXEDAIR,NODE 22 OS DEFAULT SPM,Sensor,1
 Non-Parent Node Connection,NODE 24,SETPOINTMANAGER:MIXEDAIR,NODE 22 OS DEFAULT SPM,Sensor,1
 Non-Parent Node Connection,NODE 22,SETPOINTMANAGER:MIXEDAIR,NODE 22 OS DEFAULT SPM,Setpoint,1
 Non-Parent Node Connection,NODE 16,SETPOINTMANAGER:MIXEDAIR,NODE 23 OS DEFAULT SPM,Sensor,1
 Non-Parent Node Connection,NODE 24,SETPOINTMANAGER:MIXEDAIR,NODE 23 OS DEFAULT SPM,Sensor,1
 Non-Parent Node Connection,NODE 23,SETPOINTMANAGER:MIXEDAIR,NODE 23 OS DEFAULT SPM,Setpoint,1
 Non-Parent Node Connection,NODE 16,SETPOINTMANAGER:MIXEDAIR,NODE 24 OS DEFAULT SPM,Sensor,1
 Non-Parent Node Connection,NODE 24,SETPOINTMANAGER:MIXEDAIR,NODE 24 OS DEFAULT SPM,Sensor,1
 Non-Parent Node Connection,NODE 24,SETPOINTMANAGER:MIXEDAIR,NODE 24 OS DEFAULT SPM,Setpoint,1
 Non-Parent Node Connection,NODE 61,SETPOINTMANAGER:FOLLOWOUTDOORAIRTEMPERATURE,SETPOINT MANAGER FOLLOW OUTDOOR AIR TEMPERATURE 1,Setpoint,1
 Non-Parent Node Connection,NODE 49,PIPE:ADIABATIC,PIPE ADIABATIC 6,Inlet,1
 Non-Parent Node Connection,NODE 50,PIPE:ADIABATIC,PIPE ADIABATIC 6,Outlet,1
 Non-Parent Node Connection,NODE 51,PIPE:ADIABATIC,PIPE ADIABATIC 7,Inlet,1
 Non-Parent Node Connection,NODE 42,PIPE:ADIABATIC,PIPE ADIABATIC 7,Outlet,1
 Non-Parent Node Connection,NODE 44,PIPE:ADIABATIC,PIPE ADIABATIC 9,Inlet,1
 Non-Parent Node Connection,NODE 58,PIPE:ADIABATIC,PIPE ADIABATIC 9,Outlet,1
 Non-Parent Node Connection,NODE 54,PIPE:ADIABATIC,PIPE ADIABATIC 8,Inlet,1
 Non-Parent Node Connection,NODE 55,PIPE:ADIABATIC,PIPE ADIABATIC 8,Outlet,1
 Non-Parent Node Connection,CHILLED WATER LOOP DEMAND BYPASS PIPE INLET NODE,PIPE:ADIABATIC,CHILLED WATER LOOP DEMAND BYPASS PIPE,Inlet,1
 Non-Parent Node Connection,CHILLED WATER LOOP DEMAND BYPASS PIPE OUTLET NODE,PIPE:ADIABATIC,CHILLED WATER LOOP DEMAND BYPASS PIPE,Outlet,1
 Non-Parent Node Connection,NODE 59,PIPE:ADIABATIC,PIPE ADIABATIC 10,Inlet,1
 Non-Parent Node Connection,NODE 45,PIPE:ADIABATIC,PIPE ADIABATIC 10,Outlet,1
 Non-Parent Node Connection,NODE 67,PIPE:ADIABATIC,PIPE ADIABATIC 11,Inlet,1
 Non-Parent Node Connection,NODE 68,PIPE:ADIABATIC,PIPE ADIABATIC 11,Outlet,1
 Non-Parent Node Connection,NODE 69,PIPE:ADIABATIC,PIPE ADIABATIC 12,Inlet,1
 Non-Parent Node Connection,NODE 61,PIPE:ADIABATIC,PIPE ADIABATIC 12,Outlet,1
 Non-Parent Node Connection,NODE 63,PIPE:ADIABATIC,PIPE ADIABATIC 14,Inlet,1
 Non-Parent Node Connection,NODE 74,PIPE:ADIABATIC,PIPE ADIABATIC 14,Outlet,1
 Non-Parent Node Connection,NODE 72,PIPE:ADIABATIC,PIPE ADIABATIC 13,Inlet,1
 Non-Parent Node Connection,NODE 73,PIPE:ADIABATIC,PIPE ADIABATIC 13,Outlet,1
 Non-Parent Node Connection,CONDENSER WATER LOOP DEMAND BYPASS PIPE INLET NODE,PIPE:ADIABATIC,CONDENSER WATER LOOP DEMAND BYPASS PIPE,Inlet,1
 Non-Parent Node Connection,CONDENSER WATER LOOP DEMAND BYPASS PIPE OUTLET NODE,PIPE:ADIABATIC,CONDENSER WATER LOOP DEMAND BYPASS PIPE,Outlet,1
 Non-Parent Node Connection,NODE 75,PIPE:ADIABATIC,PIPE ADIABATIC 15,Inlet,1
 Non-Parent Node Connection,NODE 64,PIPE:ADIABATIC,PIPE ADIABATIC 15,Outlet,1
 Non-Parent Node Connection,NODE 33,PIPE:ADIABATIC,PIPE ADIABATIC 1,Inlet,1
 Non-Parent Node Connection,NODE 34,PIPE:ADIABATIC,PIPE ADIABATIC 1,Outlet,1
 Non-Parent Node Connection,NODE 40,PIPE:ADIABATIC,PIPE ADIABATIC 5,Inlet,1
 Non-Parent Node Connection,NODE 26,PIPE:ADIABATIC,PIPE ADIABATIC 5,Outlet,1
 Non-Parent Node Connection,NODE 28,PIPE:ADIABATIC,PIPE ADIABATIC 3,Inlet,1
 Non-Parent Node Connection,NODE 39,PIPE:ADIABATIC,PIPE ADIABATIC 3,Outlet,1
 Non-Parent Node Connection,NODE 30,PIPE:ADIABATIC,PIPE ADIABATIC 2,Inlet,1
 Non-Parent Node Connection,NODE 35,PIPE:ADIABATIC,PIPE ADIABATIC 2,Outlet,1
 Non-Parent Node Connection,HOT WATER LOOP DEMAND BYPASS PIPE INLET NODE,PIPE:ADIABATIC,HOT WATER LOOP DEMAND BYPASS PIPE,Inlet,1
 Non-Parent Node Connection,HOT WATER LOOP DEMAND BYPASS PIPE OUTLET NODE,PIPE:ADIABATIC,HOT WATER LOOP DEMAND BYPASS PIPE,Outlet,1
 Non-Parent Node Connection,NODE 38,PIPE:ADIABATIC,PIPE ADIABATIC 4,Inlet,1
 Non-Parent Node Connection,NODE 29,PIPE:ADIABATIC,PIPE ADIABATIC 4,Outlet,1
 Non-Parent Node Connection,NODE 58,CONNECTOR:SPLITTER,CHILLED WATER LOOP DEMAND SPLITTER,Inlet,1
 Non-Parent Node Connection,NODE 46,CONNECTOR:SPLITTER,CHILLED WATER LOOP DEMAND SPLITTER,Outlet,1
 Non-Parent Node Connection,NODE 54,CONNECTOR:SPLITTER,CHILLED WATER LOOP DEMAND SPLITTER,Outlet,1
 Non-Parent Node Connection,CHILLED WATER LOOP DEMAND BYPASS PIPE INLET NODE,CONNECTOR:SPLITTER,CHILLED WATER LOOP DEMAND SPLITTER,Outlet,1
 Non-Parent Node Connection,NODE 59,CONNECTOR:MIXER,CHILLED WATER LOOP DEMAND MIXER,Outlet,1
 Non-Parent Node Connection,NODE 52,CONNECTOR:MIXER,CHILLED WATER LOOP DEMAND MIXER,Inlet,1
 Non-Parent Node Connection,NODE 55,CONNECTOR:MIXER,CHILLED WATER LOOP DEMAND MIXER,Inlet,1
 Non-Parent Node Connection,CHILLED WATER LOOP DEMAND BYPASS PIPE OUTLET NODE,CONNECTOR:MIXER,CHILLED WATER LOOP DEMAND MIXER,Inlet,1
 Non-Parent Node Connection,NODE 47,CONNECTOR:SPLITTER,CHILLED WATER LOOP SUPPLY SPLITTER,Inlet,1
 Non-Parent Node Connection,NODE 43,CONNECTOR:SPLITTER,CHILLED WATER LOOP SUPPLY SPLITTER,Outlet,1
 Non-Parent Node Connection,NODE 49,CONNECTOR:SPLITTER,CHILLED WATER LOOP SUPPLY SPLITTER,Outlet,1
 Non-Parent Node Connection,NODE 51,CONNECTOR:MIXER,CHILLED WATER LOOP SUPPLY MIXER,Outlet,1
 Non-Parent Node Connection,NODE 48,CONNECTOR:MIXER,CHILLED WATER LOOP SUPPLY MIXER,Inlet,1
 Non-Parent Node Connection,NODE 50,CONNECTOR:MIXER,CHILLED WATER LOOP SUPPLY MIXER,Inlet,1
 Non-Parent Node Connection,NODE 74,CONNECTOR:SPLITTER,CONDENSER WATER LOOP DEMAND SPLITTER,Inlet,1
 Non-Parent Node Connection,NODE 65,CONNECTOR:SPLITTER,CONDENSER WATER LOOP DEMAND SPLITTER,Outlet,1
 Non-Parent Node Connection,NODE 72,CONNECTOR:SPLITTER,CONDENSER WATER LOOP DEMAND SPLITTER,Outlet,1
 Non-Parent Node Connection,CONDENSER WATER LOOP DEMAND BYPASS PIPE INLET NODE,CONNECTOR:SPLITTER,CONDENSER WATER LOOP DEMAND SPLITTER,Outlet,1
 Non-Parent Node Connection,NODE 75,CONNECTOR:MIXER,CONDENSER WATER LOOP DEMAND MIXER,Outlet,1
 Non-Parent Node Connection,NODE 71,CONNECTOR:MIXER,CONDENSER WATER LOOP DEMAND MIXER,Inlet,1
 Non-Parent Node Connection,NODE 73,CONNECTOR:MIXER,CONDENSER WATER LOOP DEMAND MIXER,Inlet,1
 Non-Parent Node Connection,CONDENSER WATER LOOP DEMAND BYPASS PIPE OUTLET NODE,CONNECTOR:MIXER,CONDENSER WATER LOOP DEMAND MIXER,Inlet,1
 Non-Parent Node Connection,NODE 70,CONNECTOR:SPLITTER,CONDENSER WATER LOOP SUPPLY SPLITTER,Inlet,1
 Non-Parent Node Connection,NODE 62,CONNECTOR:SPLITTER,CONDENSER WATER LOOP SUPPLY SPLITTER,Outlet,1
 Non-Parent Node Connection,NODE 67,CONNECTOR:SPLITTER,CONDENSER WATER LOOP SUPPLY SPLITTER,Outlet,1
 Non-Parent Node Connection,NODE 69,CONNECTOR:MIXER,CONDENSER WATER LOOP SUPPLY MIXER,Outlet,1
 Non-Parent Node Connection,NODE 66,CONNECTOR:MIXER,CONDENSER WATER LOOP SUPPLY MIXER,Inlet,1
 Non-Parent Node Connection,NODE 68,CONNECTOR:MIXER,CONDENSER WATER LOOP SUPPLY MIXER,Inlet,1
 Non-Parent Node Connection,NODE 39,CONNECTOR:SPLITTER,HOT WATER LOOP DEMAND SPLITTER,Inlet,1
 Non-Parent Node Connection,NODE 30,CONNECTOR:SPLITTER,HOT WATER LOOP DEMAND SPLITTER,Outlet,1
 Non-Parent Node Connection,NODE 36,CONNECTOR:SPLITTER,HOT WATER LOOP DEMAND SPLITTER,Outlet,1
 Non-Parent Node Connection,NODE 56,CONNECTOR:SPLITTER,HOT WATER LOOP DEMAND SPLITTER,Outlet,1
 Non-Parent Node Connection,HOT WATER LOOP DEMAND BYPASS PIPE INLET NODE,CONNECTOR:SPLITTER,HOT WATER LOOP DEMAND SPLITTER,Outlet,1
 Non-Parent Node Connection,NODE 38,CONNECTOR:MIXER,HOT WATER LOOP DEMAND MIXER,Outlet,1
 Non-Parent Node Connection,NODE 35,CONNECTOR:MIXER,HOT WATER LOOP DEMAND MIXER,Inlet,1
 Non-Parent Node Connection,NODE 37,CONNECTOR:MIXER,HOT WATER LOOP DEMAND MIXER,Inlet,1
 Non-Parent Node Connection,NODE 57,CONNECTOR:MIXER,HOT WATER LOOP DEMAND MIXER,Inlet,1
 Non-Parent Node Connection,HOT WATER LOOP DEMAND BYPASS PIPE OUTLET NODE,CONNECTOR:MIXER,HOT WATER LOOP DEMAND MIXER,Inlet,1
 Non-Parent Node Connection,NODE 31,CONNECTOR:SPLITTER,HOT WATER LOOP SUPPLY SPLITTER,Inlet,1
 Non-Parent Node Connection,NODE 27,CONNECTOR:SPLITTER,HOT WATER LOOP SUPPLY SPLITTER,Outlet,1
 Non-Parent Node Connection,NODE 33,CONNECTOR:SPLITTER,HOT WATER LOOP SUPPLY SPLITTER,Outlet,1
 Non-Parent Node Connection,NODE 40,CONNECTOR:MIXER,HOT WATER LOOP SUPPLY MIXER,Outlet,1
 Non-Parent Node Connection,NODE 32,CONNECTOR:MIXER,HOT WATER LOOP SUPPLY MIXER,Inlet,1
 Non-Parent Node Connection,NODE 34,CONNECTOR:MIXER,HOT WATER LOOP SUPPLY MIXER,Inlet,1
 Non-Parent Node Connection,NODE 6,AIRLOOPHVAC:ZONESPLITTER,AIR LOOP HVAC ZONE SPLITTER 1,Inlet,1
 Non-Parent Node Connection,NODE 8,AIRLOOPHVAC:ZONESPLITTER,AIR LOOP HVAC ZONE SPLITTER 1,Outlet,1
 Non-Parent Node Connection,NODE 17,AIRLOOPHVAC:ZONESPLITTER,AIR LOOP HVAC ZONE SPLITTER 2,Inlet,1
 Non-Parent Node Connection,NODE 53,AIRLOOPHVAC:ZONESPLITTER,AIR LOOP HVAC ZONE SPLITTER 2,Outlet,1
 Non-Parent Node Connection,NODE 8,AIRTERMINAL:SINGLEDUCT:UNCONTROLLED,AIR TERMINAL SINGLE DUCT UNCONTROLLED 1,Outlet,1
 Non-Parent Node Connection,AIR TERMINAL SINGLE DUCT VAV REHEAT 1 DAMPER OUTLET,AIRTERMINAL:SINGLEDUCT:VAV:REHEAT,AIR TERMINAL SINGLE DUCT VAV REHEAT 1,Outlet,1
 Non-Parent Node Connection,NODE 53,AIRTERMINAL:SINGLEDUCT:VAV:REHEAT,AIR TERMINAL SINGLE DUCT VAV REHEAT 1,Inlet,1
 Non-Parent Node Connection,NODE 56,COIL:HEATING:WATER,COIL HEATING WATER 2,Inlet,2
 Non-Parent Node Connection,NODE 57,COIL:HEATING:WATER,COIL HEATING WATER 2,Outlet,2
 Non-Parent Node Connection,AIR TERMINAL SINGLE DUCT VAV REHEAT 1 DAMPER OUTLET,COIL:HEATING:WATER,COIL HEATING WATER 2,Inlet,1
 Non-Parent Node Connection,NODE 19,COIL:HEATING:WATER,COIL HEATING WATER 2,Outlet,1
 Non-Parent Node Connection,NODE 36,COIL:HEATING:WATER,COIL HEATING WATER 1,Inlet,2
 Non-Parent Node Connection,NODE 37,COIL:HEATING:WATER,COIL HEATING WATER 1,Outlet,2
 Non-Parent Node Connection,NODE 23,COIL:HEATING:WATER,COIL HEATING WATER 1,Inlet,1
 Non-Parent Node Connection,NODE 24,COIL:HEATING:WATER,COIL HEATING WATER 1,Outlet,1
 Non-Parent Node Connection,NODE 46,COIL:COOLING:WATER,COIL COOLING WATER 1,Inlet,2
 Non-Parent Node Connection,NODE 52,COIL:COOLING:WATER,COIL COOLING WATER 1,Outlet,2
 Non-Parent Node Connection,NODE 22,COIL:COOLING:WATER,COIL COOLING WATER 1,Inlet,1
 Non-Parent Node Connection,NODE 23,COIL:COOLING:WATER,COIL COOLING WATER 1,Outlet,1
 Non-Parent Node Connection,NODE 23,CONTROLLER:WATERCOIL,CONTROLLER WATER COIL 2,Sensor,1
 Non-Parent Node Connection,NODE 46,CONTROLLER:WATERCOIL,CONTROLLER WATER COIL 2,Actuator,1
 Non-Parent Node Connection,NODE 24,CONTROLLER:WATERCOIL,CONTROLLER WATER COIL 1,Sensor,1
 Non-Parent Node Connection,NODE 36,CONTROLLER:WATERCOIL,CONTROLLER WATER COIL 1,Actuator,1
 Non-Parent Node Connection,NODE 10,FAN:CONSTANTVOLUME,STANDARD FAN,Inlet,1
 Non-Parent Node Connection,NODE 5,FAN:CONSTANTVOLUME,STANDARD FAN,Outlet,1
 Non-Parent Node Connection,NODE 24,FAN:VARIABLEVOLUME,FAN VARIABLE VOLUME 1,Inlet,1
 Non-Parent Node Connection,NODE 16,FAN:VARIABLEVOLUME,FAN VARIABLE VOLUME 1,Outlet,1
 Non-Parent Node Connection,NODE 77,FAN:ZONEEXHAUST,ZONE EXHAUST FAN,Inlet,1
 Non-Parent Node Connection,NODE 78,FAN:ZONEEXHAUST,ZONE EXHAUST FAN,Outlet,1
 Non-Parent Node Connection,NODE 7,AIRLOOPHVAC:ZONEMIXER,AIR LOOP HVAC ZONE MIXER 1,Outlet,1
 Non-Parent Node Connection,NODE 9,AIRLOOPHVAC:ZONEMIXER,AIR LOOP HVAC ZONE MIXER 1,Inlet,1
 Non-Parent Node Connection,NODE 18,AIRLOOPHVAC:ZONEMIXER,AIR LOOP HVAC ZONE MIXER 2,Outlet,1
 Non-Parent Node Connection,NODE 76,AIRLOOPHVAC:ZONEMIXER,AIR LOOP HVAC ZONE MIXER 2,Inlet,1
 Non-Parent Node Connection,NODE 12,OUTDOORAIR:MIXER,AIR LOOP HVAC OUTDOOR AIR SYSTEM 1 OUTDOOR AIR MIXER,Outlet,1
 Non-Parent Node Connection,NODE 14,OUTDOORAIR:MIXER,AIR LOOP HVAC OUTDOOR AIR SYSTEM 1 OUTDOOR AIR MIXER,Inlet,1
 Non-Parent Node Connection,NODE 3,OUTDOORAIR:MIXER,AIR LOOP HVAC OUTDOOR AIR SYSTEM 1 OUTDOOR AIR MIXER,ReliefAir,1
 Non-Parent Node Connection,NODE 4,OUTDOORAIR:MIXER,AIR LOOP HVAC OUTDOOR AIR SYSTEM 1 OUTDOOR AIR MIXER,Inlet,1
 Non-Parent Node Connection,NODE 22,OUTDOORAIR:MIXER,AIR LOOP HVAC OUTDOOR AIR SYSTEM 2 OUTDOOR AIR MIXER,Outlet,1
 Non-Parent Node Connection,NODE 20,OUTDOORAIR:MIXER,AIR LOOP HVAC OUTDOOR AIR SYSTEM 2 OUTDOOR AIR MIXER,Inlet,1
 Non-Parent Node Connection,NODE 21,OUTDOORAIR:MIXER,AIR LOOP HVAC OUTDOOR AIR SYSTEM 2 OUTDOOR AIR MIXER,ReliefAir,1
 Non-Parent Node Connection,NODE 15,OUTDOORAIR:MIXER,AIR LOOP HVAC OUTDOOR AIR SYSTEM 2 OUTDOOR AIR MIXER,Inlet,1
 Non-Parent Node Connection,NODE 12,CONTROLLER:OUTDOORAIR,CONTROLLER OUTDOOR AIR 1,Sensor,1
 Non-Parent Node Connection,NODE 2,CONTROLLER:OUTDOORAIR,CONTROLLER OUTDOOR AIR 1,Actuator,1
 Non-Parent Node Connection,NODE 3,CONTROLLER:OUTDOORAIR,CONTROLLER OUTDOOR AIR 1,Actuator,1
 Non-Parent Node Connection,NODE 4,CONTROLLER:OUTDOORAIR,CONTROLLER OUTDOOR AIR 1,Sensor,1
 Non-Parent Node Connection,NODE 22,CONTROLLER:OUTDOORAIR,CONTROLLER OUTDOOR AIR 2,Sensor,1
 Non-Parent Node Connection,NODE 20,CONTROLLER:OUTDOORAIR,CONTROLLER OUTDOOR AIR 2,Actuator,1
 Non-Parent Node Connection,NODE 21,CONTROLLER:OUTDOORAIR,CONTROLLER OUTDOOR AIR 2,Actuator,1
 Non-Parent Node Connection,NODE 15,CONTROLLER:OUTDOORAIR,CONTROLLER OUTDOOR AIR 2,Sensor,1
 Non-Parent Node Connection,NODE 2,EVAPORATIVECOOLER:DIRECT:RESEARCHSPECIAL,EVAPORATIVE COOLER DIRECT RESEARCH SPECIAL 1,Inlet,1
 Non-Parent Node Connection,NODE 14,EVAPORATIVECOOLER:DIRECT:RESEARCHSPECIAL,EVAPORATIVE COOLER DIRECT RESEARCH SPECIAL 1,Outlet,1
 Non-Parent Node Connection,NODE 14,EVAPORATIVECOOLER:DIRECT:RESEARCHSPECIAL,EVAPORATIVE COOLER DIRECT RESEARCH SPECIAL 1,Sensor,1
 Non-Parent Node Connection,NODE 12,COIL:COOLING:DX:SINGLESPEED,COIL COOLING DX SINGLE SPEED 1,Inlet,1
 Non-Parent Node Connection,NODE 11,COIL:COOLING:DX:SINGLESPEED,COIL COOLING DX SINGLE SPEED 1,Outlet,1
 Non-Parent Node Connection,NODE 11,COIL:HEATING:FUEL,COIL HEATING GAS 1,Inlet,1
 Non-Parent Node Connection,NODE 10,COIL:HEATING:FUEL,COIL HEATING GAS 1,Outlet,1
 Non-Parent Node Connection,NODE 10,COIL:HEATING:FUEL,COIL HEATING GAS 1,Sensor,1
 Non-Parent Node Connection,NODE 43,CHILLER:ELECTRIC:EIR,CHILLER ELECTRIC EIR 1,Inlet,1
 Non-Parent Node Connection,NODE 48,CHILLER:ELECTRIC:EIR,CHILLER ELECTRIC EIR 1,Outlet,1
 Non-Parent Node Connection,NODE 65,CHILLER:ELECTRIC:EIR,CHILLER ELECTRIC EIR 1,Inlet,2
 Non-Parent Node Connection,NODE 71,CHILLER:ELECTRIC:EIR,CHILLER ELECTRIC EIR 1,Outlet,2
 Non-Parent Node Connection,NODE 62,COOLINGTOWER:SINGLESPEED,COOLING TOWER SINGLE SPEED 1,Inlet,1
 Non-Parent Node Connection,NODE 66,COOLINGTOWER:SINGLESPEED,COOLING TOWER SINGLE SPEED 1,Outlet,1
 Non-Parent Node Connection,NODE 27,BOILER:HOTWATER,BOILER HOT WATER 1,Inlet,1
 Non-Parent Node Connection,NODE 32,BOILER:HOTWATER,BOILER HOT WATER 1,Outlet,1
 Non-Parent Node Connection,NODE 41,PUMP:VARIABLESPEED,PUMP VARIABLE SPEED 2,Inlet,1
 Non-Parent Node Connection,NODE 47,PUMP:VARIABLESPEED,PUMP VARIABLE SPEED 2,Outlet,1
 Non-Parent Node Connection,NODE 60,PUMP:VARIABLESPEED,PUMP VARIABLE SPEED 3,Inlet,1
 Non-Parent Node Connection,NODE 70,PUMP:VARIABLESPEED,PUMP VARIABLE SPEED 3,Outlet,1
 Non-Parent Node Connection,NODE 25,PUMP:VARIABLESPEED,PUMP VARIABLE SPEED 1,Inlet,1
 Non-Parent Node Connection,NODE 31,PUMP:VARIABLESPEED,PUMP VARIABLE SPEED 1,Outlet,1
