Program Version,EnergyPlus, Version 8.9.0-eba93e8e1b, YMD=2019.08.12 15:16
! <Version>, Version ID
 Version, 8.9
! <Timesteps per Hour>, #TimeSteps, Minutes per TimeStep {minutes}
 Timesteps per Hour,  1, 60
! <System Convergence Limits>, Minimum System TimeStep {minutes}, Max HVAC Iterations, Minimum Plant Iterations, Maximum Plant Iterations
 System Convergence Limits, 5, 25, 2, 8
! <Simulation Control>, Do Zone Sizing, Do System Sizing, Do Plant Sizing, Do Design Days, Do Weather Simulation, Do HVAC Sizing Simulation
 Simulation Control, Yes, Yes, Yes, No, Yes, No
! <Output Reporting Tolerances>, Tolerance for Time Heating Setpoint Not Met, Tolerance for Zone Cooling Setpoint Not Met Time
 Output Reporting Tolerances, 1.000, 1.000, 
! <Site:GroundTemperature:BuildingSurface>,Jan{C},Feb{C},Mar{C},Apr{C},May{C},Jun{C},Jul{C},Aug{C},Sep{C},Oct{C},Nov{C},Dec{C}
 Site:GroundTemperature:BuildingSurface,  19.53,  19.50,  19.54,  19.60,  20.00,  21.64,  22.23,  22.38,  21.45,  20.12,  19.80,  19.63
! <Site:GroundTemperature:FCfactorMethod>,Jan{C},Feb{C},Mar{C},Apr{C},May{C},Jun{C},Jul{C},Aug{C},Sep{C},Oct{C},Nov{C},Dec{C}
 Site:GroundTemperature:FCfactorMethod,   4.91,   4.40,   5.30,   6.72,  10.43,  13.29,  15.22,  15.81,  14.81,  12.58,   9.61,   6.86
! <Site:GroundTemperature:Shallow>,Jan{C},Feb{C},Mar{C},Apr{C},May{C},Jun{C},Jul{C},Aug{C},Sep{C},Oct{C},Nov{C},Dec{C}
 Site:GroundTemperature:Shallow,  13.00,  13.00,  13.00,  13.00,  13.00,  13.00,  13.00,  13.00,  13.00,  13.00,  13.00,  13.00
! <Site:GroundTemperature:Deep>,Jan{C},Feb{C},Mar{C},Apr{C},May{C},Jun{C},Jul{C},Aug{C},Sep{C},Oct{C},Nov{C},Dec{C}
 Site:GroundTemperature:Deep,  16.00,  16.00,  16.00,  16.00,  16.00,  16.00,  16.00,  16.00,  16.00,  16.00,  16.00,  16.00
! <Site:GroundReflectance>,Jan{dimensionless},Feb{dimensionless},Mar{dimensionless},Apr{dimensionless},May{dimensionless},Jun{dimensionless},Jul{dimensionless},Aug{dimensionless},Sep{dimensionless},Oct{dimensionless},Nov{dimensionless},Dec{dimensionless}
 Site:GroundReflectance,  0.20,  0.20,  0.20,  0.20,  0.20,  0.20,  0.20,  0.20,  0.20,  0.20,  0.20,  0.20
! <Site:GroundReflectance:SnowModifier>, Normal, Daylighting {dimensionless}
 Site:GroundReflectance:SnowModifier,   1.000,   1.000
! <Site:GroundReflectance:Snow>,Jan{dimensionless},Feb{dimensionless},Mar{dimensionless},Apr{dimensionless},May{dimensionless},Jun{dimensionless},Jul{dimensionless},Aug{dimensionless},Sep{dimensionless},Oct{dimensionless},Nov{dimensionless},Dec{dimensionless}
 Site:GroundReflectance:Snow,  0.20,  0.20,  0.20,  0.20,  0.20,  0.20,  0.20,  0.20,  0.20,  0.20,  0.20,  0.20
! <Site:GroundReflectance:Snow:Daylighting>,Jan{dimensionless},Feb{dimensionless},Mar{dimensionless},Apr{dimensionless},May{dimensionless},Jun{dimensionless},Jul{dimensionless},Aug{dimensionless},Sep{dimensionless},Oct{dimensionless},Nov{dimensionless},Dec{dimensionless}
 Site:GroundReflectance:Snow:Daylighting,  0.20,  0.20,  0.20,  0.20,  0.20,  0.20,  0.20,  0.20,  0.20,  0.20,  0.20,  0.20
! <Environment:Weather Station>,Wind Sensor Height Above Ground {m},Wind Speed Profile Exponent {},Wind Speed Profile Boundary Layer Thickness {m},Air Temperature Sensor Height Above Ground {m},Wind Speed Modifier Coefficient-Internal,Temperature Modifier Coefficient-Internal
Environment:Weather Station,10.000,0.140,270.000,1.500,1.586,9.750E-003
! <Site:Location>, Location Name, Latitude {N+/S- Deg}, Longitude {E+/W- Deg},  Time Zone Number {GMT+/-}, Elevation {m},  Standard Pressure at Elevation {Pa}, Standard RhoAir at Elevation
Site:Location,Victoria Intl AP BC CAN CWEC2016 WMO#=717990,48.65,-123.43,-8.00,19.50,101091,1.2015
! <Building Information>, Building Name,North Axis {deg},Terrain,  Loads Convergence Tolerance Value,Temperature Convergence Tolerance Value,  Solar Distribution,Maximum Number of Warmup Days,Minimum Number of Warmup Days
 Building Information,HighriseApartment-CAN_BC_Victoria.Intl.AP.717990_CWEC2016.epw created: 2019-08-07 21:44:23 +0000,0.000,City,4.00000E-002,0.20000,FullInteriorAndExterior,25,6
! <Inside Convection Algorithm>, Algorithm {Simple | TARP | CeilingDiffuser | AdaptiveConvectionAlgorithm}
Inside Convection Algorithm,TARP
! <Outside Convection Algorithm>, Algorithm {SimpleCombined | TARP | MoWitt | DOE-2 | AdaptiveConvectionAlgorithm}
Outside Convection Algorithm,TARP
! <Sky Radiance Distribution>, Value {Anisotropic}
Sky Radiance Distribution,Anisotropic
! <Zone Air Solution Algorithm>, Value {ThirdOrderBackwardDifference | AnalyticalSolution | EulerMethod}
 Zone Air Solution Algorithm, ThirdOrderBackwardDifference
! <Zone Air Carbon Dioxide Balance Simulation>, Simulation {Yes/No}, Carbon Dioxide Concentration
 Zone Air Carbon Dioxide Balance Simulation, No,N/A
! <Zone Air Generic Contaminant Balance Simulation>, Simulation {Yes/No}, Generic Contaminant Concentration
 Zone Air Generic Contaminant Balance Simulation, No,N/A
! <Zone Air Mass Flow Balance Simulation>, Enforce Mass Balance, Adjust Zone Mixing, Adjust Zone Infiltration {AddInfiltration | AdjustInfiltration | None}, Infiltration Zones {MixingSourceZonesOnly | AllZones}
 Zone Air Mass Flow Balance Simulation, No,N/A,N/A,N/A
! <HVACSystemRootFindingAlgorithm>, Value {RegulaFalsi | Bisection | BisectionThenRegulaFalsi | RegulaFalsiThenBisection}
 HVACSystemRootFindingAlgorithm, RegulaFalsi
! <Environment:Site Atmospheric Variation>,Wind Speed Profile Exponent {},Wind Speed Profile Boundary Layer Thickness {m},Air Temperature Gradient Coefficient {K/m}
Environment:Site Atmospheric Variation,0.330,460.000,6.500000E-003
! <Surface Geometry>,Starting Corner,Vertex Input Direction,Coordinate System,Daylight Reference Point Coordinate System,Rectangular (Simple) Surface Coordinate System
 Surface Geometry,UpperLeftCorner,Counterclockwise,RelativeCoordinateSystem,RelativeCoordinateSystem,RelativeToZoneOrigin
! <Surface Heat Transfer Algorithm>, Value {CTF - ConductionTransferFunction | EMPD - MoisturePenetrationDepthConductionTransferFunction | CondFD - ConductionFiniteDifference | HAMT - CombinedHeatAndMoistureFiniteElement} - Description,Inside Surface Max Temperature Limit{C}, Surface Convection Coefficient Lower Limit {W/m2-K}, Surface Convection Coefficient Upper Limit {W/m2-K}
Surface Heat Transfer Algorithm, CTF - ConductionTransferFunction,200,0.10,1000.0
! <Shading Summary>, Number of Fixed Detached Shades, Number of Building Detached Shades, Number of Attached Shades
 Shading Summary,0,0,80
! <Zone Summary>, Number of Zones, Number of Zone Surfaces, Number of SubSurfaces
 Zone Summary,90,740,140
! <Zone Information>,Zone Name,North Axis {deg},Origin X-Coordinate {m},Origin Y-Coordinate {m},Origin Z-Coordinate {m},Centroid X-Coordinate {m},Centroid Y-Coordinate {m},Centroid Z-Coordinate {m},Type,Zone Multiplier,Zone List Multiplier,Minimum X {m},Maximum X {m},Minimum Y {m},Maximum Y {m},Minimum Z {m},Maximum Z {m},Ceiling Height {m},Volume {m3},Zone Inside Convection Algorithm {Simple-Detailed-CeilingDiffuser-TrombeWall},Zone Outside Convection Algorithm {Simple-Detailed-Tarp-MoWitt-DOE-2-BLAST}, Floor Area {m2},Exterior Gross Wall Area {m2},Exterior Net Wall Area {m2},Exterior Window Area {m2}, Number of Surfaces, Number of SubSurfaces, Number of Shading SubSurfaces,  Part of Total Building Area
 Zone Information, ALL_ST=OFFICE ENCLOSED <= 25 M2_FL=BUILDING STORY 1_SCH=A,0.0,34.75,0.00,0.00,40.54,3.81,1.52,1,1,1,34.75,46.33,0.00,7.62,0.00,3.05,3.05,268.96,TARP,TARP,88.25,58.52,52.67,5.85,6,2,2,Yes
 Zone Information, DU_BT=SPACE FUNCTION_ST=DWELLING UNITS GENERAL_FL=BUILDING STORY 10_SCHG,0.0,11.58,0.00,27.43,17.37,3.81,28.95,1,1,1,11.58,23.16,0.00,7.62,27.43,30.48,3.05,268.96,TARP,TARP,88.25,35.30,31.77,3.53,6,1,2,Yes
 Zone Information, DU_BT=SPACE FUNCTION_ST=DWELLING UNITS GENERAL_FL=BUILDING STORY 10_SCHG 1,0.0,34.75,9.30,27.43,40.54,13.11,28.95,1,1,1,34.75,46.33,9.30,16.92,27.43,30.48,3.05,268.96,TARP,TARP,88.25,58.52,52.67,5.85,6,2,0,Yes
 Zone Information, DU_BT=SPACE FUNCTION_ST=DWELLING UNITS GENERAL_FL=BUILDING STORY 10_SCHG 2,0.0,23.16,9.30,27.43,28.95,13.11,28.95,1,1,1,23.16,34.75,9.30,16.92,27.43,30.48,3.05,268.97,TARP,TARP,88.25,35.30,31.77,3.53,6,1,0,Yes
 Zone Information, DU_BT=SPACE FUNCTION_ST=DWELLING UNITS GENERAL_FL=BUILDING STORY 10_SCHG 3,0.0,23.16,0.00,27.43,28.95,3.81,28.95,1,1,1,23.16,34.75,0.00,7.62,27.43,30.48,3.05,268.97,TARP,TARP,88.25,35.30,31.77,3.53,6,1,2,Yes
 Zone Information, DU_BT=SPACE FUNCTION_ST=DWELLING UNITS GENERAL_FL=BUILDING STORY 10_SCHG 4,0.0,0.00,9.30,27.43,5.79,13.11,28.95,1,1,1,0.00,11.58,9.30,16.92,27.43,30.48,3.05,268.96,TARP,TARP,88.25,58.52,52.67,5.85,6,2,0,Yes
 Zone Information, DU_BT=SPACE FUNCTION_ST=DWELLING UNITS GENERAL_FL=BUILDING STORY 10_SCHG 5,0.0,0.00,0.00,27.43,5.79,3.81,28.95,1,1,1,0.00,11.58,0.00,7.62,27.43,30.48,3.05,268.96,TARP,TARP,88.25,58.52,52.67,5.85,6,2,2,Yes
 Zone Information, DU_BT=SPACE FUNCTION_ST=DWELLING UNITS GENERAL_FL=BUILDING STORY 10_SCHG 6,0.0,11.58,9.30,27.43,17.37,13.11,28.95,1,1,1,11.58,23.16,9.30,16.92,27.43,30.48,3.05,268.96,TARP,TARP,88.25,35.30,31.77,3.53,6,1,0,Yes
 Zone Information, DU_BT=SPACE FUNCTION_ST=DWELLING UNITS GENERAL_FL=BUILDING STORY 10_SCHG 7,0.0,34.75,0.00,27.43,40.54,3.81,28.95,1,1,1,34.75,46.33,0.00,7.62,27.43,30.48,3.05,268.96,TARP,TARP,88.25,58.52,52.67,5.85,6,2,2,Yes
 Zone Information, DU_BT=SPACE FUNCTION_ST=DWELLING UNITS GENERAL_FL=BUILDING STORY 1_SCHG,0.0,34.75,9.30,0.00,40.54,13.11,1.52,1,1,1,34.75,46.33,9.30,16.92,0.00,3.05,3.05,268.96,TARP,TARP,88.25,58.52,52.67,5.85,6,2,0,Yes
 Zone Information, DU_BT=SPACE FUNCTION_ST=DWELLING UNITS GENERAL_FL=BUILDING STORY 1_SCHG 1,0.0,0.00,0.00,0.00,5.79,3.81,1.52,1,1,1,0.00,11.58,0.00,7.62,0.00,3.05,3.05,268.96,TARP,TARP,88.25,58.52,52.67,5.85,6,2,2,Yes
 Zone Information, DU_BT=SPACE FUNCTION_ST=DWELLING UNITS GENERAL_FL=BUILDING STORY 1_SCHG 2,0.0,11.58,9.30,0.00,17.37,13.11,1.52,1,1,1,11.58,23.16,9.30,16.92,0.00,3.05,3.05,268.96,TARP,TARP,88.25,35.30,31.77,3.53,6,1,0,Yes
 Zone Information, DU_BT=SPACE FUNCTION_ST=DWELLING UNITS GENERAL_FL=BUILDING STORY 1_SCHG 3,0.0,11.58,0.00,0.00,17.37,3.81,1.52,1,1,1,11.58,23.16,0.00,7.62,0.00,3.05,3.05,268.96,TARP,TARP,88.25,35.30,31.77,3.53,6,1,2,Yes
 Zone Information, DU_BT=SPACE FUNCTION_ST=DWELLING UNITS GENERAL_FL=BUILDING STORY 1_SCHG 4,0.0,0.00,9.30,0.00,5.79,13.11,1.52,1,1,1,0.00,11.58,9.30,16.92,0.00,3.05,3.05,268.96,TARP,TARP,88.25,58.52,52.67,5.85,6,2,0,Yes
 Zone Information, DU_BT=SPACE FUNCTION_ST=DWELLING UNITS GENERAL_FL=BUILDING STORY 1_SCHG 5,0.0,23.16,9.30,0.00,28.95,13.11,1.52,1,1,1,23.16,34.75,9.30,16.92,0.00,3.05,3.05,268.97,TARP,TARP,88.25,35.30,31.77,3.53,6,1,0,Yes
 Zone Information, DU_BT=SPACE FUNCTION_ST=DWELLING UNITS GENERAL_FL=BUILDING STORY 1_SCHG 6,0.0,23.16,0.00,0.00,28.95,3.81,1.52,1,1,1,23.16,34.75,0.00,7.62,0.00,3.05,3.05,268.97,TARP,TARP,88.25,35.30,31.77,3.53,6,1,2,Yes
 Zone Information, DU_BT=SPACE FUNCTION_ST=DWELLING UNITS GENERAL_FL=BUILDING STORY 2_SCHG,0.0,23.16,9.30,3.05,28.95,13.11,4.57,1,1,1,23.16,34.75,9.30,16.92,3.05,6.10,3.05,268.97,TARP,TARP,88.25,35.30,31.77,3.53,6,1,0,Yes
 Zone Information, DU_BT=SPACE FUNCTION_ST=DWELLING UNITS GENERAL_FL=BUILDING STORY 2_SCHG 1,0.0,23.16,0.00,3.05,28.95,3.81,4.57,1,1,1,23.16,34.75,0.00,7.62,3.05,6.10,3.05,268.97,TARP,TARP,88.25,35.30,31.77,3.53,6,1,2,Yes
 Zone Information, DU_BT=SPACE FUNCTION_ST=DWELLING UNITS GENERAL_FL=BUILDING STORY 2_SCHG 2,0.0,0.00,9.30,3.05,5.79,13.11,4.57,1,1,1,0.00,11.58,9.30,16.92,3.05,6.10,3.05,268.96,TARP,TARP,88.25,58.52,52.67,5.85,6,2,0,Yes
 Zone Information, DU_BT=SPACE FUNCTION_ST=DWELLING UNITS GENERAL_FL=BUILDING STORY 2_SCHG 3,0.0,11.58,0.00,3.05,17.37,3.81,4.57,1,1,1,11.58,23.16,0.00,7.62,3.05,6.10,3.05,268.96,TARP,TARP,88.25,35.30,31.77,3.53,6,1,2,Yes
 Zone Information, DU_BT=SPACE FUNCTION_ST=DWELLING UNITS GENERAL_FL=BUILDING STORY 2_SCHG 4,0.0,34.75,9.30,3.05,40.54,13.11,4.57,1,1,1,34.75,46.33,9.30,16.92,3.05,6.10,3.05,268.96,TARP,TARP,88.25,58.52,52.67,5.85,6,2,0,Yes
 Zone Information, DU_BT=SPACE FUNCTION_ST=DWELLING UNITS GENERAL_FL=BUILDING STORY 2_SCHG 5,0.0,11.58,9.30,3.05,17.37,13.11,4.57,1,1,1,11.58,23.16,9.30,16.92,3.05,6.10,3.05,268.96,TARP,TARP,88.25,35.30,31.77,3.53,6,1,0,Yes
 Zone Information, DU_BT=SPACE FUNCTION_ST=DWELLING UNITS GENERAL_FL=BUILDING STORY 2_SCHG 6,0.0,0.00,0.00,3.05,5.79,3.81,4.57,1,1,1,0.00,11.58,0.00,7.62,3.05,6.10,3.05,268.96,TARP,TARP,88.25,58.52,52.67,5.85,6,2,2,Yes
 Zone Information, DU_BT=SPACE FUNCTION_ST=DWELLING UNITS GENERAL_FL=BUILDING STORY 2_SCHG 7,0.0,34.75,0.00,3.05,40.54,3.81,4.57,1,1,1,34.75,46.33,0.00,7.62,3.05,6.10,3.05,268.96,TARP,TARP,88.25,58.52,52.67,5.85,6,2,2,Yes
 Zone Information, DU_BT=SPACE FUNCTION_ST=DWELLING UNITS GENERAL_FL=BUILDING STORY 3_SCHG,0.0,0.00,0.00,6.10,5.79,3.81,7.62,1,1,1,0.00,11.58,0.00,7.62,6.10,9.14,3.05,268.96,TARP,TARP,88.25,58.52,52.67,5.85,6,2,2,Yes
 Zone Information, DU_BT=SPACE FUNCTION_ST=DWELLING UNITS GENERAL_FL=BUILDING STORY 3_SCHG 1,0.0,23.16,0.00,6.10,28.95,3.81,7.62,1,1,1,23.16,34.75,0.00,7.62,6.10,9.14,3.05,268.97,TARP,TARP,88.25,35.30,31.77,3.53,6,1,2,Yes
 Zone Information, DU_BT=SPACE FUNCTION_ST=DWELLING UNITS GENERAL_FL=BUILDING STORY 3_SCHG 2,0.0,11.58,0.00,6.10,17.37,3.81,7.62,1,1,1,11.58,23.16,0.00,7.62,6.10,9.14,3.05,268.96,TARP,TARP,88.25,35.30,31.77,3.53,6,1,2,Yes
 Zone Information, DU_BT=SPACE FUNCTION_ST=DWELLING UNITS GENERAL_FL=BUILDING STORY 3_SCHG 3,0.0,34.75,0.00,6.10,40.54,3.81,7.62,1,1,1,34.75,46.33,0.00,7.62,6.10,9.14,3.05,268.96,TARP,TARP,88.25,58.52,52.67,5.85,6,2,2,Yes
 Zone Information, DU_BT=SPACE FUNCTION_ST=DWELLING UNITS GENERAL_FL=BUILDING STORY 3_SCHG 4,0.0,0.00,9.30,6.10,5.79,13.11,7.62,1,1,1,0.00,11.58,9.30,16.92,6.10,9.14,3.05,268.96,TARP,TARP,88.25,58.52,52.67,5.85,6,2,0,Yes
 Zone Information, DU_BT=SPACE FUNCTION_ST=DWELLING UNITS GENERAL_FL=BUILDING STORY 3_SCHG 5,0.0,34.75,9.30,6.10,40.54,13.11,7.62,1,1,1,34.75,46.33,9.30,16.92,6.10,9.14,3.05,268.96,TARP,TARP,88.25,58.52,52.67,5.85,6,2,0,Yes
 Zone Information, DU_BT=SPACE FUNCTION_ST=DWELLING UNITS GENERAL_FL=BUILDING STORY 3_SCHG 6,0.0,11.58,9.30,6.10,17.37,13.11,7.62,1,1,1,11.58,23.16,9.30,16.92,6.10,9.14,3.05,268.96,TARP,TARP,88.25,35.30,31.77,3.53,6,1,0,Yes
 Zone Information, DU_BT=SPACE FUNCTION_ST=DWELLING UNITS GENERAL_FL=BUILDING STORY 3_SCHG 7,0.0,23.16,9.30,6.10,28.95,13.11,7.62,1,1,1,23.16,34.75,9.30,16.92,6.10,9.14,3.05,268.97,TARP,TARP,88.25,35.30,31.77,3.53,6,1,0,Yes
 Zone Information, DU_BT=SPACE FUNCTION_ST=DWELLING UNITS GENERAL_FL=BUILDING STORY 4_SCHG,0.0,34.75,0.00,9.14,40.54,3.81,10.67,1,1,1,34.75,46.33,0.00,7.62,9.14,12.19,3.05,268.96,TARP,TARP,88.25,58.52,52.67,5.85,6,2,2,Yes
 Zone Information, DU_BT=SPACE FUNCTION_ST=DWELLING UNITS GENERAL_FL=BUILDING STORY 4_SCHG 1,0.0,34.75,9.30,9.14,40.54,13.11,10.67,1,1,1,34.75,46.33,9.30,16.92,9.14,12.19,3.05,268.96,TARP,TARP,88.25,58.52,52.67,5.85,6,2,0,Yes
 Zone Information, DU_BT=SPACE FUNCTION_ST=DWELLING UNITS GENERAL_FL=BUILDING STORY 4_SCHG 2,0.0,0.00,0.00,9.14,5.79,3.81,10.67,1,1,1,0.00,11.58,0.00,7.62,9.14,12.19,3.05,268.96,TARP,TARP,88.25,58.52,52.67,5.85,6,2,2,Yes
 Zone Information, DU_BT=SPACE FUNCTION_ST=DWELLING UNITS GENERAL_FL=BUILDING STORY 4_SCHG 3,0.0,23.16,0.00,9.14,28.95,3.81,10.67,1,1,1,23.16,34.75,0.00,7.62,9.14,12.19,3.05,268.97,TARP,TARP,88.25,35.30,31.77,3.53,6,1,2,Yes
 Zone Information, DU_BT=SPACE FUNCTION_ST=DWELLING UNITS GENERAL_FL=BUILDING STORY 4_SCHG 4,0.0,0.00,9.30,9.14,5.79,13.11,10.67,1,1,1,0.00,11.58,9.30,16.92,9.14,12.19,3.05,268.96,TARP,TARP,88.25,58.52,52.67,5.85,6,2,0,Yes
 Zone Information, DU_BT=SPACE FUNCTION_ST=DWELLING UNITS GENERAL_FL=BUILDING STORY 4_SCHG 5,0.0,11.58,9.30,9.14,17.37,13.11,10.67,1,1,1,11.58,23.16,9.30,16.92,9.14,12.19,3.05,268.96,TARP,TARP,88.25,35.30,31.77,3.53,6,1,0,Yes
 Zone Information, DU_BT=SPACE FUNCTION_ST=DWELLING UNITS GENERAL_FL=BUILDING STORY 4_SCHG 6,0.0,11.58,0.00,9.14,17.37,3.81,10.67,1,1,1,11.58,23.16,0.00,7.62,9.14,12.19,3.05,268.96,TARP,TARP,88.25,35.30,31.77,3.53,6,1,2,Yes
 Zone Information, DU_BT=SPACE FUNCTION_ST=DWELLING UNITS GENERAL_FL=BUILDING STORY 4_SCHG 7,0.0,23.16,9.30,9.14,28.95,13.11,10.67,1,1,1,23.16,34.75,9.30,16.92,9.14,12.19,3.05,268.97,TARP,TARP,88.25,35.30,31.77,3.53,6,1,0,Yes
 Zone Information, DU_BT=SPACE FUNCTION_ST=DWELLING UNITS GENERAL_FL=BUILDING STORY 5_SCHG,0.0,34.75,0.00,12.19,40.54,3.81,13.72,1,1,1,34.75,46.33,0.00,7.62,12.19,15.24,3.05,268.96,TARP,TARP,88.25,58.52,52.67,5.85,6,2,2,Yes
 Zone Information, DU_BT=SPACE FUNCTION_ST=DWELLING UNITS GENERAL_FL=BUILDING STORY 5_SCHG 1,0.0,11.58,9.30,12.19,17.37,13.11,13.72,1,1,1,11.58,23.16,9.30,16.92,12.19,15.24,3.05,268.96,TARP,TARP,88.25,35.30,31.77,3.53,6,1,0,Yes
 Zone Information, DU_BT=SPACE FUNCTION_ST=DWELLING UNITS GENERAL_FL=BUILDING STORY 5_SCHG 2,0.0,34.75,9.30,12.19,40.54,13.11,13.72,1,1,1,34.75,46.33,9.30,16.92,12.19,15.24,3.05,268.96,TARP,TARP,88.25,58.52,52.67,5.85,6,2,0,Yes
 Zone Information, DU_BT=SPACE FUNCTION_ST=DWELLING UNITS GENERAL_FL=BUILDING STORY 5_SCHG 3,0.0,23.16,9.30,12.19,28.95,13.11,13.72,1,1,1,23.16,34.75,9.30,16.92,12.19,15.24,3.05,268.97,TARP,TARP,88.25,35.30,31.77,3.53,6,1,0,Yes
 Zone Information, DU_BT=SPACE FUNCTION_ST=DWELLING UNITS GENERAL_FL=BUILDING STORY 5_SCHG 4,0.0,23.16,0.00,12.19,28.95,3.81,13.72,1,1,1,23.16,34.75,0.00,7.62,12.19,15.24,3.05,268.97,TARP,TARP,88.25,35.30,31.77,3.53,6,1,2,Yes
 Zone Information, DU_BT=SPACE FUNCTION_ST=DWELLING UNITS GENERAL_FL=BUILDING STORY 5_SCHG 5,0.0,11.58,0.00,12.19,17.37,3.81,13.72,1,1,1,11.58,23.16,0.00,7.62,12.19,15.24,3.05,268.96,TARP,TARP,88.25,35.30,31.77,3.53,6,1,2,Yes
 Zone Information, DU_BT=SPACE FUNCTION_ST=DWELLING UNITS GENERAL_FL=BUILDING STORY 5_SCHG 6,0.0,0.00,9.30,12.19,5.79,13.11,13.72,1,1,1,0.00,11.58,9.30,16.92,12.19,15.24,3.05,268.96,TARP,TARP,88.25,58.52,52.67,5.85,6,2,0,Yes
 Zone Information, DU_BT=SPACE FUNCTION_ST=DWELLING UNITS GENERAL_FL=BUILDING STORY 5_SCHG 7,0.0,0.00,0.00,12.19,5.79,3.81,13.72,1,1,1,0.00,11.58,0.00,7.62,12.19,15.24,3.05,268.96,TARP,TARP,88.25,58.52,52.67,5.85,6,2,2,Yes
 Zone Information, DU_BT=SPACE FUNCTION_ST=DWELLING UNITS GENERAL_FL=BUILDING STORY 6_SCHG,0.0,0.00,9.30,15.24,5.79,13.11,16.76,1,1,1,0.00,11.58,9.30,16.92,15.24,18.29,3.05,268.96,TARP,TARP,88.25,58.52,52.67,5.85,6,2,0,Yes
 Zone Information, DU_BT=SPACE FUNCTION_ST=DWELLING UNITS GENERAL_FL=BUILDING STORY 6_SCHG 1,0.0,23.16,9.30,15.24,28.95,13.11,16.76,1,1,1,23.16,34.75,9.30,16.92,15.24,18.29,3.05,268.97,TARP,TARP,88.25,35.30,31.77,3.53,6,1,0,Yes
 Zone Information, DU_BT=SPACE FUNCTION_ST=DWELLING UNITS GENERAL_FL=BUILDING STORY 6_SCHG 2,0.0,34.75,9.30,15.24,40.54,13.11,16.76,1,1,1,34.75,46.33,9.30,16.92,15.24,18.29,3.05,268.96,TARP,TARP,88.25,58.52,52.67,5.85,6,2,0,Yes
 Zone Information, DU_BT=SPACE FUNCTION_ST=DWELLING UNITS GENERAL_FL=BUILDING STORY 6_SCHG 3,0.0,11.58,9.30,15.24,17.37,13.11,16.76,1,1,1,11.58,23.16,9.30,16.92,15.24,18.29,3.05,268.96,TARP,TARP,88.25,35.30,31.77,3.53,6,1,0,Yes
 Zone Information, DU_BT=SPACE FUNCTION_ST=DWELLING UNITS GENERAL_FL=BUILDING STORY 6_SCHG 4,0.0,34.75,0.00,15.24,40.54,3.81,16.76,1,1,1,34.75,46.33,0.00,7.62,15.24,18.29,3.05,268.96,TARP,TARP,88.25,58.52,52.67,5.85,6,2,2,Yes
 Zone Information, DU_BT=SPACE FUNCTION_ST=DWELLING UNITS GENERAL_FL=BUILDING STORY 6_SCHG 5,0.0,0.00,0.00,15.24,5.79,3.81,16.76,1,1,1,0.00,11.58,0.00,7.62,15.24,18.29,3.05,268.96,TARP,TARP,88.25,58.52,52.67,5.85,6,2,2,Yes
 Zone Information, DU_BT=SPACE FUNCTION_ST=DWELLING UNITS GENERAL_FL=BUILDING STORY 6_SCHG 6,0.0,11.58,0.00,15.24,17.37,3.81,16.76,1,1,1,11.58,23.16,0.00,7.62,15.24,18.29,3.05,268.96,TARP,TARP,88.25,35.30,31.77,3.53,6,1,2,Yes
 Zone Information, DU_BT=SPACE FUNCTION_ST=DWELLING UNITS GENERAL_FL=BUILDING STORY 6_SCHG 7,0.0,23.16,0.00,15.24,28.95,3.81,16.76,1,1,1,23.16,34.75,0.00,7.62,15.24,18.29,3.05,268.97,TARP,TARP,88.25,35.30,31.77,3.53,6,1,2,Yes
 Zone Information, DU_BT=SPACE FUNCTION_ST=DWELLING UNITS GENERAL_FL=BUILDING STORY 7_SCHG,0.0,23.16,9.30,18.29,28.95,13.11,19.81,1,1,1,23.16,34.75,9.30,16.92,18.29,21.33,3.05,268.97,TARP,TARP,88.25,35.30,31.77,3.53,6,1,0,Yes
 Zone Information, DU_BT=SPACE FUNCTION_ST=DWELLING UNITS GENERAL_FL=BUILDING STORY 7_SCHG 1,0.0,0.00,9.30,18.29,5.79,13.11,19.81,1,1,1,0.00,11.58,9.30,16.92,18.29,21.33,3.05,268.96,TARP,TARP,88.25,58.52,52.67,5.85,6,2,0,Yes
 Zone Information, DU_BT=SPACE FUNCTION_ST=DWELLING UNITS GENERAL_FL=BUILDING STORY 7_SCHG 2,0.0,11.58,0.00,18.29,17.37,3.81,19.81,1,1,1,11.58,23.16,0.00,7.62,18.29,21.33,3.05,268.96,TARP,TARP,88.25,35.30,31.77,3.53,6,1,2,Yes
 Zone Information, DU_BT=SPACE FUNCTION_ST=DWELLING UNITS GENERAL_FL=BUILDING STORY 7_SCHG 3,0.0,34.75,9.30,18.29,40.54,13.11,19.81,1,1,1,34.75,46.33,9.30,16.92,18.29,21.33,3.05,268.96,TARP,TARP,88.25,58.52,52.67,5.85,6,2,0,Yes
 Zone Information, DU_BT=SPACE FUNCTION_ST=DWELLING UNITS GENERAL_FL=BUILDING STORY 7_SCHG 4,0.0,0.00,0.00,18.29,5.79,3.81,19.81,1,1,1,0.00,11.58,0.00,7.62,18.29,21.33,3.05,268.96,TARP,TARP,88.25,58.52,52.67,5.85,6,2,2,Yes
 Zone Information, DU_BT=SPACE FUNCTION_ST=DWELLING UNITS GENERAL_FL=BUILDING STORY 7_SCHG 5,0.0,34.75,0.00,18.29,40.54,3.81,19.81,1,1,1,34.75,46.33,0.00,7.62,18.29,21.33,3.05,268.96,TARP,TARP,88.25,58.52,52.67,5.85,6,2,2,Yes
 Zone Information, DU_BT=SPACE FUNCTION_ST=DWELLING UNITS GENERAL_FL=BUILDING STORY 7_SCHG 6,0.0,11.58,9.30,18.29,17.37,13.11,19.81,1,1,1,11.58,23.16,9.30,16.92,18.29,21.33,3.05,268.96,TARP,TARP,88.25,35.30,31.77,3.53,6,1,0,Yes
 Zone Information, DU_BT=SPACE FUNCTION_ST=DWELLING UNITS GENERAL_FL=BUILDING STORY 7_SCHG 7,0.0,23.16,0.00,18.29,28.95,3.81,19.81,1,1,1,23.16,34.75,0.00,7.62,18.29,21.33,3.05,268.97,TARP,TARP,88.25,35.30,31.77,3.53,6,1,2,Yes
 Zone Information, DU_BT=SPACE FUNCTION_ST=DWELLING UNITS GENERAL_FL=BUILDING STORY 8_SCHG,0.0,23.16,0.00,21.33,28.95,3.81,22.86,1,1,1,23.16,34.75,0.00,7.62,21.33,24.38,3.05,268.97,TARP,TARP,88.25,35.30,31.77,3.53,6,1,2,Yes
 Zone Information, DU_BT=SPACE FUNCTION_ST=DWELLING UNITS GENERAL_FL=BUILDING STORY 8_SCHG 1,0.0,0.00,9.30,21.33,5.79,13.11,22.86,1,1,1,0.00,11.58,9.30,16.92,21.33,24.38,3.05,268.96,TARP,TARP,88.25,58.52,52.67,5.85,6,2,0,Yes
 Zone Information, DU_BT=SPACE FUNCTION_ST=DWELLING UNITS GENERAL_FL=BUILDING STORY 8_SCHG 2,0.0,11.58,0.00,21.33,17.37,3.81,22.86,1,1,1,11.58,23.16,0.00,7.62,21.33,24.38,3.05,268.96,TARP,TARP,88.25,35.30,31.77,3.53,6,1,2,Yes
 Zone Information, DU_BT=SPACE FUNCTION_ST=DWELLING UNITS GENERAL_FL=BUILDING STORY 8_SCHG 3,0.0,11.58,9.30,21.33,17.37,13.11,22.86,1,1,1,11.58,23.16,9.30,16.92,21.33,24.38,3.05,268.96,TARP,TARP,88.25,35.30,31.77,3.53,6,1,0,Yes
 Zone Information, DU_BT=SPACE FUNCTION_ST=DWELLING UNITS GENERAL_FL=BUILDING STORY 8_SCHG 4,0.0,34.75,9.30,21.33,40.54,13.11,22.86,1,1,1,34.75,46.33,9.30,16.92,21.33,24.38,3.05,268.96,TARP,TARP,88.25,58.52,52.67,5.85,6,2,0,Yes
 Zone Information, DU_BT=SPACE FUNCTION_ST=DWELLING UNITS GENERAL_FL=BUILDING STORY 8_SCHG 5,0.0,34.75,0.00,21.33,40.54,3.81,22.86,1,1,1,34.75,46.33,0.00,7.62,21.33,24.38,3.05,268.96,TARP,TARP,88.25,58.52,52.67,5.85,6,2,2,Yes
 Zone Information, DU_BT=SPACE FUNCTION_ST=DWELLING UNITS GENERAL_FL=BUILDING STORY 8_SCHG 6,0.0,0.00,0.00,21.33,5.79,3.81,22.86,1,1,1,0.00,11.58,0.00,7.62,21.33,24.38,3.05,268.96,TARP,TARP,88.25,58.52,52.67,5.85,6,2,2,Yes
 Zone Information, DU_BT=SPACE FUNCTION_ST=DWELLING UNITS GENERAL_FL=BUILDING STORY 8_SCHG 7,0.0,23.16,9.30,21.33,28.95,13.11,22.86,1,1,1,23.16,34.75,9.30,16.92,21.33,24.38,3.05,268.97,TARP,TARP,88.25,35.30,31.77,3.53,6,1,0,Yes
 Zone Information, DU_BT=SPACE FUNCTION_ST=DWELLING UNITS GENERAL_FL=BUILDING STORY 9_SCHG,0.0,23.16,9.30,24.38,28.95,13.11,25.91,1,1,1,23.16,34.75,9.30,16.92,24.38,27.43,3.05,268.97,TARP,TARP,88.25,35.30,31.77,3.53,6,1,0,Yes
 Zone Information, DU_BT=SPACE FUNCTION_ST=DWELLING UNITS GENERAL_FL=BUILDING STORY 9_SCHG 1,0.0,34.75,9.30,24.38,40.54,13.11,25.91,1,1,1,34.75,46.33,9.30,16.92,24.38,27.43,3.05,268.96,TARP,TARP,88.25,58.52,52.67,5.85,6,2,0,Yes
 Zone Information, DU_BT=SPACE FUNCTION_ST=DWELLING UNITS GENERAL_FL=BUILDING STORY 9_SCHG 2,0.0,23.16,0.00,24.38,28.95,3.81,25.91,1,1,1,23.16,34.75,0.00,7.62,24.38,27.43,3.05,268.97,TARP,TARP,88.25,35.30,31.77,3.53,6,1,2,Yes
 Zone Information, DU_BT=SPACE FUNCTION_ST=DWELLING UNITS GENERAL_FL=BUILDING STORY 9_SCHG 3,0.0,0.00,0.00,24.38,5.79,3.81,25.91,1,1,1,0.00,11.58,0.00,7.62,24.38,27.43,3.05,268.96,TARP,TARP,88.25,58.52,52.67,5.85,6,2,2,Yes
 Zone Information, DU_BT=SPACE FUNCTION_ST=DWELLING UNITS GENERAL_FL=BUILDING STORY 9_SCHG 4,0.0,0.00,9.30,24.38,5.79,13.11,25.91,1,1,1,0.00,11.58,9.30,16.92,24.38,27.43,3.05,268.96,TARP,TARP,88.25,58.52,52.67,5.85,6,2,0,Yes
 Zone Information, DU_BT=SPACE FUNCTION_ST=DWELLING UNITS GENERAL_FL=BUILDING STORY 9_SCHG 5,0.0,11.58,0.00,24.38,17.37,3.81,25.91,1,1,1,11.58,23.16,0.00,7.62,24.38,27.43,3.05,268.96,TARP,TARP,88.25,35.30,31.77,3.53,6,1,2,Yes
 Zone Information, DU_BT=SPACE FUNCTION_ST=DWELLING UNITS GENERAL_FL=BUILDING STORY 9_SCHG 6,0.0,11.58,9.30,24.38,17.37,13.11,25.91,1,1,1,11.58,23.16,9.30,16.92,24.38,27.43,3.05,268.96,TARP,TARP,88.25,35.30,31.77,3.53,6,1,0,Yes
 Zone Information, DU_BT=SPACE FUNCTION_ST=DWELLING UNITS GENERAL_FL=BUILDING STORY 9_SCHG 7,0.0,34.75,0.00,24.38,40.54,3.81,25.91,1,1,1,34.75,46.33,0.00,7.62,24.38,27.43,3.05,268.96,TARP,TARP,88.25,58.52,52.67,5.85,6,2,2,Yes
 Zone Information, WILD_ST=CORRIDOR/TRANSITION AREA OTHER-SCH-G_FL=BUILDING STORY 10_SCH=G,0.0,0.00,7.62,27.43,23.16,8.46,28.95,1,1,1,0.00,46.33,7.62,9.30,27.43,30.48,3.05,236.69,TARP,TARP,77.66,10.22,9.20,1.02,12,2,0,Yes
 Zone Information, WILD_ST=CORRIDOR/TRANSITION AREA OTHER-SCH-G_FL=BUILDING STORY 1_SCH=G,0.0,0.00,7.62,0.00,23.16,8.46,1.52,1,1,1,0.00,46.33,7.62,9.30,0.00,3.05,3.05,236.69,TARP,TARP,77.66,10.22,9.20,1.02,12,2,0,Yes
 Zone Information, WILD_ST=CORRIDOR/TRANSITION AREA OTHER-SCH-G_FL=BUILDING STORY 2_SCH=G,0.0,0.00,7.62,3.05,23.16,8.46,4.57,1,1,1,0.00,46.33,7.62,9.30,3.05,6.10,3.05,236.69,TARP,TARP,77.66,10.22,9.20,1.02,12,2,0,Yes
 Zone Information, WILD_ST=CORRIDOR/TRANSITION AREA OTHER-SCH-G_FL=BUILDING STORY 3_SCH=G,0.0,0.00,7.62,6.10,23.16,8.46,7.62,1,1,1,0.00,46.33,7.62,9.30,6.10,9.14,3.05,236.69,TARP,TARP,77.66,10.22,9.20,1.02,12,2,0,Yes
 Zone Information, WILD_ST=CORRIDOR/TRANSITION AREA OTHER-SCH-G_FL=BUILDING STORY 4_SCH=G,0.0,0.00,7.62,9.14,23.16,8.46,10.67,1,1,1,0.00,46.33,7.62,9.30,9.14,12.19,3.05,236.69,TARP,TARP,77.66,10.22,9.20,1.02,12,2,0,Yes
 Zone Information, WILD_ST=CORRIDOR/TRANSITION AREA OTHER-SCH-G_FL=BUILDING STORY 5_SCH=G,0.0,0.00,7.62,12.19,23.16,8.46,13.72,1,1,1,0.00,46.33,7.62,9.30,12.19,15.24,3.05,236.69,TARP,TARP,77.66,10.22,9.20,1.02,12,2,0,Yes
 Zone Information, WILD_ST=CORRIDOR/TRANSITION AREA OTHER-SCH-G_FL=BUILDING STORY 6_SCH=G,0.0,0.00,7.62,15.24,23.16,8.46,16.76,1,1,1,0.00,46.33,7.62,9.30,15.24,18.29,3.05,236.69,TARP,TARP,77.66,10.22,9.20,1.02,12,2,0,Yes
 Zone Information, WILD_ST=CORRIDOR/TRANSITION AREA OTHER-SCH-G_FL=BUILDING STORY 7_SCH=G,0.0,0.00,7.62,18.29,23.16,8.46,19.81,1,1,1,0.00,46.33,7.62,9.30,18.29,21.33,3.05,236.69,TARP,TARP,77.66,10.22,9.20,1.02,12,2,0,Yes
 Zone Information, WILD_ST=CORRIDOR/TRANSITION AREA OTHER-SCH-G_FL=BUILDING STORY 8_SCH=G,0.0,0.00,7.62,21.33,23.16,8.46,22.86,1,1,1,0.00,46.33,7.62,9.30,21.33,24.38,3.05,236.69,TARP,TARP,77.66,10.22,9.20,1.02,12,2,0,Yes
 Zone Information, WILD_ST=CORRIDOR/TRANSITION AREA OTHER-SCH-G_FL=BUILDING STORY 9_SCH=G,0.0,0.00,7.62,24.38,23.16,8.46,25.91,1,1,1,0.00,46.33,7.62,9.30,24.38,27.43,3.05,236.69,TARP,TARP,77.66,10.22,9.20,1.02,12,2,0,Yes
! <Zone Internal Gains Nominal>,Zone Name, Floor Area {m2},# Occupants,Area per Occupant {m2/person},Occupant per Area {person/m2},Interior Lighting {W/m2},Electric Load {W/m2},Gas Load {W/m2},Other Load {W/m2},Hot Water Eq {W/m2},Steam Equipment {W/m2},Sum Loads per Area {W/m2},Outdoor Controlled Baseboard Heat
 Zone Internal Gains Nominal, ALL_ST=OFFICE ENCLOSED <= 25 M2_FL=BUILDING STORY 1_SCH=A,88.25,4.4,19.993,5.002E-002,2.400,3.751,0.000,0.000,0.000,0.000,6.151,No
 Zone Internal Gains Nominal, DU_BT=SPACE FUNCTION_ST=DWELLING UNITS GENERAL_FL=BUILDING STORY 10_SCHG,88.25,3.5,24.991,4.001E-002,1.500,2.501,0.000,0.000,0.000,0.000,4.001,No
 Zone Internal Gains Nominal, DU_BT=SPACE FUNCTION_ST=DWELLING UNITS GENERAL_FL=BUILDING STORY 10_SCHG 1,88.25,3.5,24.991,4.001E-002,1.500,2.501,0.000,0.000,0.000,0.000,4.001,No
 Zone Internal Gains Nominal, DU_BT=SPACE FUNCTION_ST=DWELLING UNITS GENERAL_FL=BUILDING STORY 10_SCHG 2,88.25,3.5,24.991,4.001E-002,1.500,2.501,0.000,0.000,0.000,0.000,4.001,No
 Zone Internal Gains Nominal, DU_BT=SPACE FUNCTION_ST=DWELLING UNITS GENERAL_FL=BUILDING STORY 10_SCHG 3,88.25,3.5,24.991,4.001E-002,1.500,2.501,0.000,0.000,0.000,0.000,4.001,No
 Zone Internal Gains Nominal, DU_BT=SPACE FUNCTION_ST=DWELLING UNITS GENERAL_FL=BUILDING STORY 10_SCHG 4,88.25,3.5,24.991,4.001E-002,1.500,2.501,0.000,0.000,0.000,0.000,4.001,No
 Zone Internal Gains Nominal, DU_BT=SPACE FUNCTION_ST=DWELLING UNITS GENERAL_FL=BUILDING STORY 10_SCHG 5,88.25,3.5,24.991,4.001E-002,1.500,2.501,0.000,0.000,0.000,0.000,4.001,No
 Zone Internal Gains Nominal, DU_BT=SPACE FUNCTION_ST=DWELLING UNITS GENERAL_FL=BUILDING STORY 10_SCHG 6,88.25,3.5,24.991,4.001E-002,1.500,2.501,0.000,0.000,0.000,0.000,4.001,No
 Zone Internal Gains Nominal, DU_BT=SPACE FUNCTION_ST=DWELLING UNITS GENERAL_FL=BUILDING STORY 10_SCHG 7,88.25,3.5,24.991,4.001E-002,1.500,2.501,0.000,0.000,0.000,0.000,4.001,No
 Zone Internal Gains Nominal, DU_BT=SPACE FUNCTION_ST=DWELLING UNITS GENERAL_FL=BUILDING STORY 1_SCHG,88.25,3.5,24.991,4.001E-002,1.500,2.501,0.000,0.000,0.000,0.000,4.001,No
 Zone Internal Gains Nominal, DU_BT=SPACE FUNCTION_ST=DWELLING UNITS GENERAL_FL=BUILDING STORY 1_SCHG 1,88.25,3.5,24.991,4.001E-002,1.500,2.501,0.000,0.000,0.000,0.000,4.001,No
 Zone Internal Gains Nominal, DU_BT=SPACE FUNCTION_ST=DWELLING UNITS GENERAL_FL=BUILDING STORY 1_SCHG 2,88.25,3.5,24.991,4.001E-002,1.500,2.501,0.000,0.000,0.000,0.000,4.001,No
 Zone Internal Gains Nominal, DU_BT=SPACE FUNCTION_ST=DWELLING UNITS GENERAL_FL=BUILDING STORY 1_SCHG 3,88.25,3.5,24.991,4.001E-002,1.500,2.501,0.000,0.000,0.000,0.000,4.001,No
 Zone Internal Gains Nominal, DU_BT=SPACE FUNCTION_ST=DWELLING UNITS GENERAL_FL=BUILDING STORY 1_SCHG 4,88.25,3.5,24.991,4.001E-002,1.500,2.501,0.000,0.000,0.000,0.000,4.001,No
 Zone Internal Gains Nominal, DU_BT=SPACE FUNCTION_ST=DWELLING UNITS GENERAL_FL=BUILDING STORY 1_SCHG 5,88.25,3.5,24.991,4.001E-002,1.500,2.501,0.000,0.000,0.000,0.000,4.001,No
 Zone Internal Gains Nominal, DU_BT=SPACE FUNCTION_ST=DWELLING UNITS GENERAL_FL=BUILDING STORY 1_SCHG 6,88.25,3.5,24.991,4.001E-002,1.500,2.501,0.000,0.000,0.000,0.000,4.001,No
 Zone Internal Gains Nominal, DU_BT=SPACE FUNCTION_ST=DWELLING UNITS GENERAL_FL=BUILDING STORY 2_SCHG,88.25,3.5,24.991,4.001E-002,1.500,2.501,0.000,0.000,0.000,0.000,4.001,No
 Zone Internal Gains Nominal, DU_BT=SPACE FUNCTION_ST=DWELLING UNITS GENERAL_FL=BUILDING STORY 2_SCHG 1,88.25,3.5,24.991,4.001E-002,1.500,2.501,0.000,0.000,0.000,0.000,4.001,No
 Zone Internal Gains Nominal, DU_BT=SPACE FUNCTION_ST=DWELLING UNITS GENERAL_FL=BUILDING STORY 2_SCHG 2,88.25,3.5,24.991,4.001E-002,1.500,2.501,0.000,0.000,0.000,0.000,4.001,No
 Zone Internal Gains Nominal, DU_BT=SPACE FUNCTION_ST=DWELLING UNITS GENERAL_FL=BUILDING STORY 2_SCHG 3,88.25,3.5,24.991,4.001E-002,1.500,2.501,0.000,0.000,0.000,0.000,4.001,No
 Zone Internal Gains Nominal, DU_BT=SPACE FUNCTION_ST=DWELLING UNITS GENERAL_FL=BUILDING STORY 2_SCHG 4,88.25,3.5,24.991,4.001E-002,1.500,2.501,0.000,0.000,0.000,0.000,4.001,No
 Zone Internal Gains Nominal, DU_BT=SPACE FUNCTION_ST=DWELLING UNITS GENERAL_FL=BUILDING STORY 2_SCHG 5,88.25,3.5,24.991,4.001E-002,1.500,2.501,0.000,0.000,0.000,0.000,4.001,No
 Zone Internal Gains Nominal, DU_BT=SPACE FUNCTION_ST=DWELLING UNITS GENERAL_FL=BUILDING STORY 2_SCHG 6,88.25,3.5,24.991,4.001E-002,1.500,2.501,0.000,0.000,0.000,0.000,4.001,No
 Zone Internal Gains Nominal, DU_BT=SPACE FUNCTION_ST=DWELLING UNITS GENERAL_FL=BUILDING STORY 2_SCHG 7,88.25,3.5,24.991,4.001E-002,1.500,2.501,0.000,0.000,0.000,0.000,4.001,No
 Zone Internal Gains Nominal, DU_BT=SPACE FUNCTION_ST=DWELLING UNITS GENERAL_FL=BUILDING STORY 3_SCHG,88.25,3.5,24.991,4.001E-002,1.500,2.501,0.000,0.000,0.000,0.000,4.001,No
 Zone Internal Gains Nominal, DU_BT=SPACE FUNCTION_ST=DWELLING UNITS GENERAL_FL=BUILDING STORY 3_SCHG 1,88.25,3.5,24.991,4.001E-002,1.500,2.501,0.000,0.000,0.000,0.000,4.001,No
 Zone Internal Gains Nominal, DU_BT=SPACE FUNCTION_ST=DWELLING UNITS GENERAL_FL=BUILDING STORY 3_SCHG 2,88.25,3.5,24.991,4.001E-002,1.500,2.501,0.000,0.000,0.000,0.000,4.001,No
 Zone Internal Gains Nominal, DU_BT=SPACE FUNCTION_ST=DWELLING UNITS GENERAL_FL=BUILDING STORY 3_SCHG 3,88.25,3.5,24.991,4.001E-002,1.500,2.501,0.000,0.000,0.000,0.000,4.001,No
 Zone Internal Gains Nominal, DU_BT=SPACE FUNCTION_ST=DWELLING UNITS GENERAL_FL=BUILDING STORY 3_SCHG 4,88.25,3.5,24.991,4.001E-002,1.500,2.501,0.000,0.000,0.000,0.000,4.001,No
 Zone Internal Gains Nominal, DU_BT=SPACE FUNCTION_ST=DWELLING UNITS GENERAL_FL=BUILDING STORY 3_SCHG 5,88.25,3.5,24.991,4.001E-002,1.500,2.501,0.000,0.000,0.000,0.000,4.001,No
 Zone Internal Gains Nominal, DU_BT=SPACE FUNCTION_ST=DWELLING UNITS GENERAL_FL=BUILDING STORY 3_SCHG 6,88.25,3.5,24.991,4.001E-002,1.500,2.501,0.000,0.000,0.000,0.000,4.001,No
 Zone Internal Gains Nominal, DU_BT=SPACE FUNCTION_ST=DWELLING UNITS GENERAL_FL=BUILDING STORY 3_SCHG 7,88.25,3.5,24.991,4.001E-002,1.500,2.501,0.000,0.000,0.000,0.000,4.001,No
 Zone Internal Gains Nominal, DU_BT=SPACE FUNCTION_ST=DWELLING UNITS GENERAL_FL=BUILDING STORY 4_SCHG,88.25,3.5,24.991,4.001E-002,1.500,2.501,0.000,0.000,0.000,0.000,4.001,No
 Zone Internal Gains Nominal, DU_BT=SPACE FUNCTION_ST=DWELLING UNITS GENERAL_FL=BUILDING STORY 4_SCHG 1,88.25,3.5,24.991,4.001E-002,1.500,2.501,0.000,0.000,0.000,0.000,4.001,No
 Zone Internal Gains Nominal, DU_BT=SPACE FUNCTION_ST=DWELLING UNITS GENERAL_FL=BUILDING STORY 4_SCHG 2,88.25,3.5,24.991,4.001E-002,1.500,2.501,0.000,0.000,0.000,0.000,4.001,No
 Zone Internal Gains Nominal, DU_BT=SPACE FUNCTION_ST=DWELLING UNITS GENERAL_FL=BUILDING STORY 4_SCHG 3,88.25,3.5,24.991,4.001E-002,1.500,2.501,0.000,0.000,0.000,0.000,4.001,No
 Zone Internal Gains Nominal, DU_BT=SPACE FUNCTION_ST=DWELLING UNITS GENERAL_FL=BUILDING STORY 4_SCHG 4,88.25,3.5,24.991,4.001E-002,1.500,2.501,0.000,0.000,0.000,0.000,4.001,No
 Zone Internal Gains Nominal, DU_BT=SPACE FUNCTION_ST=DWELLING UNITS GENERAL_FL=BUILDING STORY 4_SCHG 5,88.25,3.5,24.991,4.001E-002,1.500,2.501,0.000,0.000,0.000,0.000,4.001,No
 Zone Internal Gains Nominal, DU_BT=SPACE FUNCTION_ST=DWELLING UNITS GENERAL_FL=BUILDING STORY 4_SCHG 6,88.25,3.5,24.991,4.001E-002,1.500,2.501,0.000,0.000,0.000,0.000,4.001,No
 Zone Internal Gains Nominal, DU_BT=SPACE FUNCTION_ST=DWELLING UNITS GENERAL_FL=BUILDING STORY 4_SCHG 7,88.25,3.5,24.991,4.001E-002,1.500,2.501,0.000,0.000,0.000,0.000,4.001,No
 Zone Internal Gains Nominal, DU_BT=SPACE FUNCTION_ST=DWELLING UNITS GENERAL_FL=BUILDING STORY 5_SCHG,88.25,3.5,24.991,4.001E-002,1.500,2.501,0.000,0.000,0.000,0.000,4.001,No
 Zone Internal Gains Nominal, DU_BT=SPACE FUNCTION_ST=DWELLING UNITS GENERAL_FL=BUILDING STORY 5_SCHG 1,88.25,3.5,24.991,4.001E-002,1.500,2.501,0.000,0.000,0.000,0.000,4.001,No
 Zone Internal Gains Nominal, DU_BT=SPACE FUNCTION_ST=DWELLING UNITS GENERAL_FL=BUILDING STORY 5_SCHG 2,88.25,3.5,24.991,4.001E-002,1.500,2.501,0.000,0.000,0.000,0.000,4.001,No
 Zone Internal Gains Nominal, DU_BT=SPACE FUNCTION_ST=DWELLING UNITS GENERAL_FL=BUILDING STORY 5_SCHG 3,88.25,3.5,24.991,4.001E-002,1.500,2.501,0.000,0.000,0.000,0.000,4.001,No
 Zone Internal Gains Nominal, DU_BT=SPACE FUNCTION_ST=DWELLING UNITS GENERAL_FL=BUILDING STORY 5_SCHG 4,88.25,3.5,24.991,4.001E-002,1.500,2.501,0.000,0.000,0.000,0.000,4.001,No
 Zone Internal Gains Nominal, DU_BT=SPACE FUNCTION_ST=DWELLING UNITS GENERAL_FL=BUILDING STORY 5_SCHG 5,88.25,3.5,24.991,4.001E-002,1.500,2.501,0.000,0.000,0.000,0.000,4.001,No
 Zone Internal Gains Nominal, DU_BT=SPACE FUNCTION_ST=DWELLING UNITS GENERAL_FL=BUILDING STORY 5_SCHG 6,88.25,3.5,24.991,4.001E-002,1.500,2.501,0.000,0.000,0.000,0.000,4.001,No
 Zone Internal Gains Nominal, DU_BT=SPACE FUNCTION_ST=DWELLING UNITS GENERAL_FL=BUILDING STORY 5_SCHG 7,88.25,3.5,24.991,4.001E-002,1.500,2.501,0.000,0.000,0.000,0.000,4.001,No
 Zone Internal Gains Nominal, DU_BT=SPACE FUNCTION_ST=DWELLING UNITS GENERAL_FL=BUILDING STORY 6_SCHG,88.25,3.5,24.991,4.001E-002,1.500,2.501,0.000,0.000,0.000,0.000,4.001,No
 Zone Internal Gains Nominal, DU_BT=SPACE FUNCTION_ST=DWELLING UNITS GENERAL_FL=BUILDING STORY 6_SCHG 1,88.25,3.5,24.991,4.001E-002,1.500,2.501,0.000,0.000,0.000,0.000,4.001,No
 Zone Internal Gains Nominal, DU_BT=SPACE FUNCTION_ST=DWELLING UNITS GENERAL_FL=BUILDING STORY 6_SCHG 2,88.25,3.5,24.991,4.001E-002,1.500,2.501,0.000,0.000,0.000,0.000,4.001,No
 Zone Internal Gains Nominal, DU_BT=SPACE FUNCTION_ST=DWELLING UNITS GENERAL_FL=BUILDING STORY 6_SCHG 3,88.25,3.5,24.991,4.001E-002,1.500,2.501,0.000,0.000,0.000,0.000,4.001,No
 Zone Internal Gains Nominal, DU_BT=SPACE FUNCTION_ST=DWELLING UNITS GENERAL_FL=BUILDING STORY 6_SCHG 4,88.25,3.5,24.991,4.001E-002,1.500,2.501,0.000,0.000,0.000,0.000,4.001,No
 Zone Internal Gains Nominal, DU_BT=SPACE FUNCTION_ST=DWELLING UNITS GENERAL_FL=BUILDING STORY 6_SCHG 5,88.25,3.5,24.991,4.001E-002,1.500,2.501,0.000,0.000,0.000,0.000,4.001,No
 Zone Internal Gains Nominal, DU_BT=SPACE FUNCTION_ST=DWELLING UNITS GENERAL_FL=BUILDING STORY 6_SCHG 6,88.25,3.5,24.991,4.001E-002,1.500,2.501,0.000,0.000,0.000,0.000,4.001,No
 Zone Internal Gains Nominal, DU_BT=SPACE FUNCTION_ST=DWELLING UNITS GENERAL_FL=BUILDING STORY 6_SCHG 7,88.25,3.5,24.991,4.001E-002,1.500,2.501,0.000,0.000,0.000,0.000,4.001,No
 Zone Internal Gains Nominal, DU_BT=SPACE FUNCTION_ST=DWELLING UNITS GENERAL_FL=BUILDING STORY 7_SCHG,88.25,3.5,24.991,4.001E-002,1.500,2.501,0.000,0.000,0.000,0.000,4.001,No
 Zone Internal Gains Nominal, DU_BT=SPACE FUNCTION_ST=DWELLING UNITS GENERAL_FL=BUILDING STORY 7_SCHG 1,88.25,3.5,24.991,4.001E-002,1.500,2.501,0.000,0.000,0.000,0.000,4.001,No
 Zone Internal Gains Nominal, DU_BT=SPACE FUNCTION_ST=DWELLING UNITS GENERAL_FL=BUILDING STORY 7_SCHG 2,88.25,3.5,24.991,4.001E-002,1.500,2.501,0.000,0.000,0.000,0.000,4.001,No
 Zone Internal Gains Nominal, DU_BT=SPACE FUNCTION_ST=DWELLING UNITS GENERAL_FL=BUILDING STORY 7_SCHG 3,88.25,3.5,24.991,4.001E-002,1.500,2.501,0.000,0.000,0.000,0.000,4.001,No
 Zone Internal Gains Nominal, DU_BT=SPACE FUNCTION_ST=DWELLING UNITS GENERAL_FL=BUILDING STORY 7_SCHG 4,88.25,3.5,24.991,4.001E-002,1.500,2.501,0.000,0.000,0.000,0.000,4.001,No
 Zone Internal Gains Nominal, DU_BT=SPACE FUNCTION_ST=DWELLING UNITS GENERAL_FL=BUILDING STORY 7_SCHG 5,88.25,3.5,24.991,4.001E-002,1.500,2.501,0.000,0.000,0.000,0.000,4.001,No
 Zone Internal Gains Nominal, DU_BT=SPACE FUNCTION_ST=DWELLING UNITS GENERAL_FL=BUILDING STORY 7_SCHG 6,88.25,3.5,24.991,4.001E-002,1.500,2.501,0.000,0.000,0.000,0.000,4.001,No
 Zone Internal Gains Nominal, DU_BT=SPACE FUNCTION_ST=DWELLING UNITS GENERAL_FL=BUILDING STORY 7_SCHG 7,88.25,3.5,24.991,4.001E-002,1.500,2.501,0.000,0.000,0.000,0.000,4.001,No
 Zone Internal Gains Nominal, DU_BT=SPACE FUNCTION_ST=DWELLING UNITS GENERAL_FL=BUILDING STORY 8_SCHG,88.25,3.5,24.991,4.001E-002,1.500,2.501,0.000,0.000,0.000,0.000,4.001,No
 Zone Internal Gains Nominal, DU_BT=SPACE FUNCTION_ST=DWELLING UNITS GENERAL_FL=BUILDING STORY 8_SCHG 1,88.25,3.5,24.991,4.001E-002,1.500,2.501,0.000,0.000,0.000,0.000,4.001,No
 Zone Internal Gains Nominal, DU_BT=SPACE FUNCTION_ST=DWELLING UNITS GENERAL_FL=BUILDING STORY 8_SCHG 2,88.25,3.5,24.991,4.001E-002,1.500,2.501,0.000,0.000,0.000,0.000,4.001,No
 Zone Internal Gains Nominal, DU_BT=SPACE FUNCTION_ST=DWELLING UNITS GENERAL_FL=BUILDING STORY 8_SCHG 3,88.25,3.5,24.991,4.001E-002,1.500,2.501,0.000,0.000,0.000,0.000,4.001,No
 Zone Internal Gains Nominal, DU_BT=SPACE FUNCTION_ST=DWELLING UNITS GENERAL_FL=BUILDING STORY 8_SCHG 4,88.25,3.5,24.991,4.001E-002,1.500,2.501,0.000,0.000,0.000,0.000,4.001,No
 Zone Internal Gains Nominal, DU_BT=SPACE FUNCTION_ST=DWELLING UNITS GENERAL_FL=BUILDING STORY 8_SCHG 5,88.25,3.5,24.991,4.001E-002,1.500,2.501,0.000,0.000,0.000,0.000,4.001,No
 Zone Internal Gains Nominal, DU_BT=SPACE FUNCTION_ST=DWELLING UNITS GENERAL_FL=BUILDING STORY 8_SCHG 6,88.25,3.5,24.991,4.001E-002,1.500,2.501,0.000,0.000,0.000,0.000,4.001,No
 Zone Internal Gains Nominal, DU_BT=SPACE FUNCTION_ST=DWELLING UNITS GENERAL_FL=BUILDING STORY 8_SCHG 7,88.25,3.5,24.991,4.001E-002,1.500,2.501,0.000,0.000,0.000,0.000,4.001,No
 Zone Internal Gains Nominal, DU_BT=SPACE FUNCTION_ST=DWELLING UNITS GENERAL_FL=BUILDING STORY 9_SCHG,88.25,3.5,24.991,4.001E-002,1.500,2.501,0.000,0.000,0.000,0.000,4.001,No
 Zone Internal Gains Nominal, DU_BT=SPACE FUNCTION_ST=DWELLING UNITS GENERAL_FL=BUILDING STORY 9_SCHG 1,88.25,3.5,24.991,4.001E-002,1.500,2.501,0.000,0.000,0.000,0.000,4.001,No
 Zone Internal Gains Nominal, DU_BT=SPACE FUNCTION_ST=DWELLING UNITS GENERAL_FL=BUILDING STORY 9_SCHG 2,88.25,3.5,24.991,4.001E-002,1.500,2.501,0.000,0.000,0.000,0.000,4.001,No
 Zone Internal Gains Nominal, DU_BT=SPACE FUNCTION_ST=DWELLING UNITS GENERAL_FL=BUILDING STORY 9_SCHG 3,88.25,3.5,24.991,4.001E-002,1.500,2.501,0.000,0.000,0.000,0.000,4.001,No
 Zone Internal Gains Nominal, DU_BT=SPACE FUNCTION_ST=DWELLING UNITS GENERAL_FL=BUILDING STORY 9_SCHG 4,88.25,3.5,24.991,4.001E-002,1.500,2.501,0.000,0.000,0.000,0.000,4.001,No
 Zone Internal Gains Nominal, DU_BT=SPACE FUNCTION_ST=DWELLING UNITS GENERAL_FL=BUILDING STORY 9_SCHG 5,88.25,3.5,24.991,4.001E-002,1.500,2.501,0.000,0.000,0.000,0.000,4.001,No
 Zone Internal Gains Nominal, DU_BT=SPACE FUNCTION_ST=DWELLING UNITS GENERAL_FL=BUILDING STORY 9_SCHG 6,88.25,3.5,24.991,4.001E-002,1.500,2.501,0.000,0.000,0.000,0.000,4.001,No
 Zone Internal Gains Nominal, DU_BT=SPACE FUNCTION_ST=DWELLING UNITS GENERAL_FL=BUILDING STORY 9_SCHG 7,88.25,3.5,24.991,4.001E-002,1.500,2.501,0.000,0.000,0.000,0.000,4.001,No
 Zone Internal Gains Nominal, WILD_ST=CORRIDOR/TRANSITION AREA OTHER-SCH-G_FL=BUILDING STORY 10_SCH=G,77.66,0.8,99.964,1.000E-002,1.320,0.000,0.000,0.000,0.000,0.000,1.320,No
 Zone Internal Gains Nominal, WILD_ST=CORRIDOR/TRANSITION AREA OTHER-SCH-G_FL=BUILDING STORY 1_SCH=G,77.66,0.8,99.964,1.000E-002,1.320,0.000,0.000,0.000,0.000,0.000,1.320,No
 Zone Internal Gains Nominal, WILD_ST=CORRIDOR/TRANSITION AREA OTHER-SCH-G_FL=BUILDING STORY 2_SCH=G,77.66,0.8,99.964,1.000E-002,1.320,0.000,0.000,0.000,0.000,0.000,1.320,No
 Zone Internal Gains Nominal, WILD_ST=CORRIDOR/TRANSITION AREA OTHER-SCH-G_FL=BUILDING STORY 3_SCH=G,77.66,0.8,99.964,1.000E-002,1.320,0.000,0.000,0.000,0.000,0.000,1.320,No
 Zone Internal Gains Nominal, WILD_ST=CORRIDOR/TRANSITION AREA OTHER-SCH-G_FL=BUILDING STORY 4_SCH=G,77.66,0.8,99.964,1.000E-002,1.320,0.000,0.000,0.000,0.000,0.000,1.320,No
 Zone Internal Gains Nominal, WILD_ST=CORRIDOR/TRANSITION AREA OTHER-SCH-G_FL=BUILDING STORY 5_SCH=G,77.66,0.8,99.964,1.000E-002,1.320,0.000,0.000,0.000,0.000,0.000,1.320,No
 Zone Internal Gains Nominal, WILD_ST=CORRIDOR/TRANSITION AREA OTHER-SCH-G_FL=BUILDING STORY 6_SCH=G,77.66,0.8,99.964,1.000E-002,1.320,0.000,0.000,0.000,0.000,0.000,1.320,No
 Zone Internal Gains Nominal, WILD_ST=CORRIDOR/TRANSITION AREA OTHER-SCH-G_FL=BUILDING STORY 7_SCH=G,77.66,0.8,99.964,1.000E-002,1.320,0.000,0.000,0.000,0.000,0.000,1.320,No
 Zone Internal Gains Nominal, WILD_ST=CORRIDOR/TRANSITION AREA OTHER-SCH-G_FL=BUILDING STORY 8_SCH=G,77.66,0.8,99.964,1.000E-002,1.320,0.000,0.000,0.000,0.000,0.000,1.320,No
 Zone Internal Gains Nominal, WILD_ST=CORRIDOR/TRANSITION AREA OTHER-SCH-G_FL=BUILDING STORY 9_SCH=G,77.66,0.8,99.964,1.000E-002,1.320,0.000,0.000,0.000,0.000,0.000,1.320,No
! <People Internal Gains Nominal>,Name,Schedule Name,Zone Name,Zone Floor Area {m2},# Zone Occupants,Number of People {},People/Floor Area {person/m2},Floor Area per person {m2/person},Fraction Radiant,Fraction Convected,Sensible Fraction Calculation,Activity level,ASHRAE 55 Warnings,Carbon Dioxide Generation Rate,Nominal Minimum Number of People,Nominal Maximum Number of People
 People Internal Gains Nominal, WILD_ST=CORRIDOR/TRANSITION AREA OTHER-SCH-G_FL=BUILDING STORY 10_SCH=G SPACE FUNCTION CORRIDOR/TRANSITION AREA OTHER-SCH-G PEOPLE,NECB-G-OCCUPANCY,WILD_ST=CORRIDOR/TRANSITION AREA OTHER-SCH-G_FL=BUILDING STORY 10_SCH=G,77.66,0.8,0.8,1.000E-002,99.964,0.300,0.700,AutoCalculate,NECB-ACTIVITY,No,3.8200E-008,0,1
 People Internal Gains Nominal, WILD_ST=CORRIDOR/TRANSITION AREA OTHER-SCH-G_FL=BUILDING STORY 1_SCH=G SPACE FUNCTION CORRIDOR/TRANSITION AREA OTHER-SCH-G PEOPLE,NECB-G-OCCUPANCY,WILD_ST=CORRIDOR/TRANSITION AREA OTHER-SCH-G_FL=BUILDING STORY 1_SCH=G,77.66,0.8,0.8,1.000E-002,99.964,0.300,0.700,AutoCalculate,NECB-ACTIVITY,No,3.8200E-008,0,1
 People Internal Gains Nominal, WILD_ST=CORRIDOR/TRANSITION AREA OTHER-SCH-G_FL=BUILDING STORY 2_SCH=G SPACE FUNCTION CORRIDOR/TRANSITION AREA OTHER-SCH-G PEOPLE,NECB-G-OCCUPANCY,WILD_ST=CORRIDOR/TRANSITION AREA OTHER-SCH-G_FL=BUILDING STORY 2_SCH=G,77.66,0.8,0.8,1.000E-002,99.964,0.300,0.700,AutoCalculate,NECB-ACTIVITY,No,3.8200E-008,0,1
 People Internal Gains Nominal, WILD_ST=CORRIDOR/TRANSITION AREA OTHER-SCH-G_FL=BUILDING STORY 3_SCH=G SPACE FUNCTION CORRIDOR/TRANSITION AREA OTHER-SCH-G PEOPLE,NECB-G-OCCUPANCY,WILD_ST=CORRIDOR/TRANSITION AREA OTHER-SCH-G_FL=BUILDING STORY 3_SCH=G,77.66,0.8,0.8,1.000E-002,99.964,0.300,0.700,AutoCalculate,NECB-ACTIVITY,No,3.8200E-008,0,1
 People Internal Gains Nominal, WILD_ST=CORRIDOR/TRANSITION AREA OTHER-SCH-G_FL=BUILDING STORY 4_SCH=G SPACE FUNCTION CORRIDOR/TRANSITION AREA OTHER-SCH-G PEOPLE,NECB-G-OCCUPANCY,WILD_ST=CORRIDOR/TRANSITION AREA OTHER-SCH-G_FL=BUILDING STORY 4_SCH=G,77.66,0.8,0.8,1.000E-002,99.964,0.300,0.700,AutoCalculate,NECB-ACTIVITY,No,3.8200E-008,0,1
 People Internal Gains Nominal, WILD_ST=CORRIDOR/TRANSITION AREA OTHER-SCH-G_FL=BUILDING STORY 5_SCH=G SPACE FUNCTION CORRIDOR/TRANSITION AREA OTHER-SCH-G PEOPLE,NECB-G-OCCUPANCY,WILD_ST=CORRIDOR/TRANSITION AREA OTHER-SCH-G_FL=BUILDING STORY 5_SCH=G,77.66,0.8,0.8,1.000E-002,99.964,0.300,0.700,AutoCalculate,NECB-ACTIVITY,No,3.8200E-008,0,1
 People Internal Gains Nominal, WILD_ST=CORRIDOR/TRANSITION AREA OTHER-SCH-G_FL=BUILDING STORY 6_SCH=G SPACE FUNCTION CORRIDOR/TRANSITION AREA OTHER-SCH-G PEOPLE,NECB-G-OCCUPANCY,WILD_ST=CORRIDOR/TRANSITION AREA OTHER-SCH-G_FL=BUILDING STORY 6_SCH=G,77.66,0.8,0.8,1.000E-002,99.964,0.300,0.700,AutoCalculate,NECB-ACTIVITY,No,3.8200E-008,0,1
 People Internal Gains Nominal, WILD_ST=CORRIDOR/TRANSITION AREA OTHER-SCH-G_FL=BUILDING STORY 7_SCH=G SPACE FUNCTION CORRIDOR/TRANSITION AREA OTHER-SCH-G PEOPLE,NECB-G-OCCUPANCY,WILD_ST=CORRIDOR/TRANSITION AREA OTHER-SCH-G_FL=BUILDING STORY 7_SCH=G,77.66,0.8,0.8,1.000E-002,99.964,0.300,0.700,AutoCalculate,NECB-ACTIVITY,No,3.8200E-008,0,1
 People Internal Gains Nominal, WILD_ST=CORRIDOR/TRANSITION AREA OTHER-SCH-G_FL=BUILDING STORY 8_SCH=G SPACE FUNCTION CORRIDOR/TRANSITION AREA OTHER-SCH-G PEOPLE,NECB-G-OCCUPANCY,WILD_ST=CORRIDOR/TRANSITION AREA OTHER-SCH-G_FL=BUILDING STORY 8_SCH=G,77.66,0.8,0.8,1.000E-002,99.964,0.300,0.700,AutoCalculate,NECB-ACTIVITY,No,3.8200E-008,0,1
 People Internal Gains Nominal, WILD_ST=CORRIDOR/TRANSITION AREA OTHER-SCH-G_FL=BUILDING STORY 9_SCH=G SPACE FUNCTION CORRIDOR/TRANSITION AREA OTHER-SCH-G PEOPLE,NECB-G-OCCUPANCY,WILD_ST=CORRIDOR/TRANSITION AREA OTHER-SCH-G_FL=BUILDING STORY 9_SCH=G,77.66,0.8,0.8,1.000E-002,99.964,0.300,0.700,AutoCalculate,NECB-ACTIVITY,No,3.8200E-008,0,1
 People Internal Gains Nominal, DU_BT=SPACE FUNCTION_ST=DWELLING UNITS GENERAL_FL=BUILDING STORY 10_SCHG SPACE FUNCTION DWELLING UNITS GENERAL PEOPLE,NECB-G-OCCUPANCY,DU_BT=SPACE FUNCTION_ST=DWELLING UNITS GENERAL_FL=BUILDING STORY 10_SCHG,88.25,3.5,3.5,4.001E-002,24.991,0.300,0.700,AutoCalculate,NECB-ACTIVITY,No,3.8200E-008,1,3
 People Internal Gains Nominal, DU_BT=SPACE FUNCTION_ST=DWELLING UNITS GENERAL_FL=BUILDING STORY 10_SCHG 1 SPACE FUNCTION DWELLING UNITS GENERAL PEOPLE,NECB-G-OCCUPANCY,DU_BT=SPACE FUNCTION_ST=DWELLING UNITS GENERAL_FL=BUILDING STORY 10_SCHG 1,88.25,3.5,3.5,4.001E-002,24.991,0.300,0.700,AutoCalculate,NECB-ACTIVITY,No,3.8200E-008,1,3
 People Internal Gains Nominal, DU_BT=SPACE FUNCTION_ST=DWELLING UNITS GENERAL_FL=BUILDING STORY 10_SCHG 2 SPACE FUNCTION DWELLING UNITS GENERAL PEOPLE,NECB-G-OCCUPANCY,DU_BT=SPACE FUNCTION_ST=DWELLING UNITS GENERAL_FL=BUILDING STORY 10_SCHG 2,88.25,3.5,3.5,4.001E-002,24.991,0.300,0.700,AutoCalculate,NECB-ACTIVITY,No,3.8200E-008,1,3
 People Internal Gains Nominal, DU_BT=SPACE FUNCTION_ST=DWELLING UNITS GENERAL_FL=BUILDING STORY 10_SCHG 3 SPACE FUNCTION DWELLING UNITS GENERAL PEOPLE,NECB-G-OCCUPANCY,DU_BT=SPACE FUNCTION_ST=DWELLING UNITS GENERAL_FL=BUILDING STORY 10_SCHG 3,88.25,3.5,3.5,4.001E-002,24.991,0.300,0.700,AutoCalculate,NECB-ACTIVITY,No,3.8200E-008,1,3
 People Internal Gains Nominal, DU_BT=SPACE FUNCTION_ST=DWELLING UNITS GENERAL_FL=BUILDING STORY 10_SCHG 4 SPACE FUNCTION DWELLING UNITS GENERAL PEOPLE,NECB-G-OCCUPANCY,DU_BT=SPACE FUNCTION_ST=DWELLING UNITS GENERAL_FL=BUILDING STORY 10_SCHG 4,88.25,3.5,3.5,4.001E-002,24.991,0.300,0.700,AutoCalculate,NECB-ACTIVITY,No,3.8200E-008,1,3
 People Internal Gains Nominal, DU_BT=SPACE FUNCTION_ST=DWELLING UNITS GENERAL_FL=BUILDING STORY 10_SCHG 5 SPACE FUNCTION DWELLING UNITS GENERAL PEOPLE,NECB-G-OCCUPANCY,DU_BT=SPACE FUNCTION_ST=DWELLING UNITS GENERAL_FL=BUILDING STORY 10_SCHG 5,88.25,3.5,3.5,4.001E-002,24.991,0.300,0.700,AutoCalculate,NECB-ACTIVITY,No,3.8200E-008,1,3
 People Internal Gains Nominal, DU_BT=SPACE FUNCTION_ST=DWELLING UNITS GENERAL_FL=BUILDING STORY 10_SCHG 6 SPACE FUNCTION DWELLING UNITS GENERAL PEOPLE,NECB-G-OCCUPANCY,DU_BT=SPACE FUNCTION_ST=DWELLING UNITS GENERAL_FL=BUILDING STORY 10_SCHG 6,88.25,3.5,3.5,4.001E-002,24.991,0.300,0.700,AutoCalculate,NECB-ACTIVITY,No,3.8200E-008,1,3
 People Internal Gains Nominal, DU_BT=SPACE FUNCTION_ST=DWELLING UNITS GENERAL_FL=BUILDING STORY 10_SCHG 7 SPACE FUNCTION DWELLING UNITS GENERAL PEOPLE,NECB-G-OCCUPANCY,DU_BT=SPACE FUNCTION_ST=DWELLING UNITS GENERAL_FL=BUILDING STORY 10_SCHG 7,88.25,3.5,3.5,4.001E-002,24.991,0.300,0.700,AutoCalculate,NECB-ACTIVITY,No,3.8200E-008,1,3
 People Internal Gains Nominal, DU_BT=SPACE FUNCTION_ST=DWELLING UNITS GENERAL_FL=BUILDING STORY 1_SCHG SPACE FUNCTION DWELLING UNITS GENERAL PEOPLE,NECB-G-OCCUPANCY,DU_BT=SPACE FUNCTION_ST=DWELLING UNITS GENERAL_FL=BUILDING STORY 1_SCHG,88.25,3.5,3.5,4.001E-002,24.991,0.300,0.700,AutoCalculate,NECB-ACTIVITY,No,3.8200E-008,1,3
 People Internal Gains Nominal, DU_BT=SPACE FUNCTION_ST=DWELLING UNITS GENERAL_FL=BUILDING STORY 1_SCHG 1 SPACE FUNCTION DWELLING UNITS GENERAL PEOPLE,NECB-G-OCCUPANCY,DU_BT=SPACE FUNCTION_ST=DWELLING UNITS GENERAL_FL=BUILDING STORY 1_SCHG 1,88.25,3.5,3.5,4.001E-002,24.991,0.300,0.700,AutoCalculate,NECB-ACTIVITY,No,3.8200E-008,1,3
 People Internal Gains Nominal, DU_BT=SPACE FUNCTION_ST=DWELLING UNITS GENERAL_FL=BUILDING STORY 1_SCHG 2 SPACE FUNCTION DWELLING UNITS GENERAL PEOPLE,NECB-G-OCCUPANCY,DU_BT=SPACE FUNCTION_ST=DWELLING UNITS GENERAL_FL=BUILDING STORY 1_SCHG 2,88.25,3.5,3.5,4.001E-002,24.991,0.300,0.700,AutoCalculate,NECB-ACTIVITY,No,3.8200E-008,1,3
 People Internal Gains Nominal, DU_BT=SPACE FUNCTION_ST=DWELLING UNITS GENERAL_FL=BUILDING STORY 1_SCHG 3 SPACE FUNCTION DWELLING UNITS GENERAL PEOPLE,NECB-G-OCCUPANCY,DU_BT=SPACE FUNCTION_ST=DWELLING UNITS GENERAL_FL=BUILDING STORY 1_SCHG 3,88.25,3.5,3.5,4.001E-002,24.991,0.300,0.700,AutoCalculate,NECB-ACTIVITY,No,3.8200E-008,1,3
 People Internal Gains Nominal, DU_BT=SPACE FUNCTION_ST=DWELLING UNITS GENERAL_FL=BUILDING STORY 1_SCHG 4 SPACE FUNCTION DWELLING UNITS GENERAL PEOPLE,NECB-G-OCCUPANCY,DU_BT=SPACE FUNCTION_ST=DWELLING UNITS GENERAL_FL=BUILDING STORY 1_SCHG 4,88.25,3.5,3.5,4.001E-002,24.991,0.300,0.700,AutoCalculate,NECB-ACTIVITY,No,3.8200E-008,1,3
 People Internal Gains Nominal, DU_BT=SPACE FUNCTION_ST=DWELLING UNITS GENERAL_FL=BUILDING STORY 1_SCHG 5 SPACE FUNCTION DWELLING UNITS GENERAL PEOPLE,NECB-G-OCCUPANCY,DU_BT=SPACE FUNCTION_ST=DWELLING UNITS GENERAL_FL=BUILDING STORY 1_SCHG 5,88.25,3.5,3.5,4.001E-002,24.991,0.300,0.700,AutoCalculate,NECB-ACTIVITY,No,3.8200E-008,1,3
 People Internal Gains Nominal, DU_BT=SPACE FUNCTION_ST=DWELLING UNITS GENERAL_FL=BUILDING STORY 1_SCHG 6 SPACE FUNCTION DWELLING UNITS GENERAL PEOPLE,NECB-G-OCCUPANCY,DU_BT=SPACE FUNCTION_ST=DWELLING UNITS GENERAL_FL=BUILDING STORY 1_SCHG 6,88.25,3.5,3.5,4.001E-002,24.991,0.300,0.700,AutoCalculate,NECB-ACTIVITY,No,3.8200E-008,1,3
 People Internal Gains Nominal, DU_BT=SPACE FUNCTION_ST=DWELLING UNITS GENERAL_FL=BUILDING STORY 2_SCHG SPACE FUNCTION DWELLING UNITS GENERAL PEOPLE,NECB-G-OCCUPANCY,DU_BT=SPACE FUNCTION_ST=DWELLING UNITS GENERAL_FL=BUILDING STORY 2_SCHG,88.25,3.5,3.5,4.001E-002,24.991,0.300,0.700,AutoCalculate,NECB-ACTIVITY,No,3.8200E-008,1,3
 People Internal Gains Nominal, DU_BT=SPACE FUNCTION_ST=DWELLING UNITS GENERAL_FL=BUILDING STORY 2_SCHG 1 SPACE FUNCTION DWELLING UNITS GENERAL PEOPLE,NECB-G-OCCUPANCY,DU_BT=SPACE FUNCTION_ST=DWELLING UNITS GENERAL_FL=BUILDING STORY 2_SCHG 1,88.25,3.5,3.5,4.001E-002,24.991,0.300,0.700,AutoCalculate,NECB-ACTIVITY,No,3.8200E-008,1,3
 People Internal Gains Nominal, DU_BT=SPACE FUNCTION_ST=DWELLING UNITS GENERAL_FL=BUILDING STORY 2_SCHG 2 SPACE FUNCTION DWELLING UNITS GENERAL PEOPLE,NECB-G-OCCUPANCY,DU_BT=SPACE FUNCTION_ST=DWELLING UNITS GENERAL_FL=BUILDING STORY 2_SCHG 2,88.25,3.5,3.5,4.001E-002,24.991,0.300,0.700,AutoCalculate,NECB-ACTIVITY,No,3.8200E-008,1,3
 People Internal Gains Nominal, DU_BT=SPACE FUNCTION_ST=DWELLING UNITS GENERAL_FL=BUILDING STORY 2_SCHG 3 SPACE FUNCTION DWELLING UNITS GENERAL PEOPLE,NECB-G-OCCUPANCY,DU_BT=SPACE FUNCTION_ST=DWELLING UNITS GENERAL_FL=BUILDING STORY 2_SCHG 3,88.25,3.5,3.5,4.001E-002,24.991,0.300,0.700,AutoCalculate,NECB-ACTIVITY,No,3.8200E-008,1,3
 People Internal Gains Nominal, DU_BT=SPACE FUNCTION_ST=DWELLING UNITS GENERAL_FL=BUILDING STORY 2_SCHG 4 SPACE FUNCTION DWELLING UNITS GENERAL PEOPLE,NECB-G-OCCUPANCY,DU_BT=SPACE FUNCTION_ST=DWELLING UNITS GENERAL_FL=BUILDING STORY 2_SCHG 4,88.25,3.5,3.5,4.001E-002,24.991,0.300,0.700,AutoCalculate,NECB-ACTIVITY,No,3.8200E-008,1,3
 People Internal Gains Nominal, DU_BT=SPACE FUNCTION_ST=DWELLING UNITS GENERAL_FL=BUILDING STORY 2_SCHG 5 SPACE FUNCTION DWELLING UNITS GENERAL PEOPLE,NECB-G-OCCUPANCY,DU_BT=SPACE FUNCTION_ST=DWELLING UNITS GENERAL_FL=BUILDING STORY 2_SCHG 5,88.25,3.5,3.5,4.001E-002,24.991,0.300,0.700,AutoCalculate,NECB-ACTIVITY,No,3.8200E-008,1,3
 People Internal Gains Nominal, DU_BT=SPACE FUNCTION_ST=DWELLING UNITS GENERAL_FL=BUILDING STORY 2_SCHG 6 SPACE FUNCTION DWELLING UNITS GENERAL PEOPLE,NECB-G-OCCUPANCY,DU_BT=SPACE FUNCTION_ST=DWELLING UNITS GENERAL_FL=BUILDING STORY 2_SCHG 6,88.25,3.5,3.5,4.001E-002,24.991,0.300,0.700,AutoCalculate,NECB-ACTIVITY,No,3.8200E-008,1,3
 People Internal Gains Nominal, DU_BT=SPACE FUNCTION_ST=DWELLING UNITS GENERAL_FL=BUILDING STORY 2_SCHG 7 SPACE FUNCTION DWELLING UNITS GENERAL PEOPLE,NECB-G-OCCUPANCY,DU_BT=SPACE FUNCTION_ST=DWELLING UNITS GENERAL_FL=BUILDING STORY 2_SCHG 7,88.25,3.5,3.5,4.001E-002,24.991,0.300,0.700,AutoCalculate,NECB-ACTIVITY,No,3.8200E-008,1,3
 People Internal Gains Nominal, DU_BT=SPACE FUNCTION_ST=DWELLING UNITS GENERAL_FL=BUILDING STORY 3_SCHG SPACE FUNCTION DWELLING UNITS GENERAL PEOPLE,NECB-G-OCCUPANCY,DU_BT=SPACE FUNCTION_ST=DWELLING UNITS GENERAL_FL=BUILDING STORY 3_SCHG,88.25,3.5,3.5,4.001E-002,24.991,0.300,0.700,AutoCalculate,NECB-ACTIVITY,No,3.8200E-008,1,3
 People Internal Gains Nominal, DU_BT=SPACE FUNCTION_ST=DWELLING UNITS GENERAL_FL=BUILDING STORY 3_SCHG 1 SPACE FUNCTION DWELLING UNITS GENERAL PEOPLE,NECB-G-OCCUPANCY,DU_BT=SPACE FUNCTION_ST=DWELLING UNITS GENERAL_FL=BUILDING STORY 3_SCHG 1,88.25,3.5,3.5,4.001E-002,24.991,0.300,0.700,AutoCalculate,NECB-ACTIVITY,No,3.8200E-008,1,3
 People Internal Gains Nominal, DU_BT=SPACE FUNCTION_ST=DWELLING UNITS GENERAL_FL=BUILDING STORY 3_SCHG 2 SPACE FUNCTION DWELLING UNITS GENERAL PEOPLE,NECB-G-OCCUPANCY,DU_BT=SPACE FUNCTION_ST=DWELLING UNITS GENERAL_FL=BUILDING STORY 3_SCHG 2,88.25,3.5,3.5,4.001E-002,24.991,0.300,0.700,AutoCalculate,NECB-ACTIVITY,No,3.8200E-008,1,3
 People Internal Gains Nominal, DU_BT=SPACE FUNCTION_ST=DWELLING UNITS GENERAL_FL=BUILDING STORY 3_SCHG 3 SPACE FUNCTION DWELLING UNITS GENERAL PEOPLE,NECB-G-OCCUPANCY,DU_BT=SPACE FUNCTION_ST=DWELLING UNITS GENERAL_FL=BUILDING STORY 3_SCHG 3,88.25,3.5,3.5,4.001E-002,24.991,0.300,0.700,AutoCalculate,NECB-ACTIVITY,No,3.8200E-008,1,3
 People Internal Gains Nominal, DU_BT=SPACE FUNCTION_ST=DWELLING UNITS GENERAL_FL=BUILDING STORY 3_SCHG 4 SPACE FUNCTION DWELLING UNITS GENERAL PEOPLE,NECB-G-OCCUPANCY,DU_BT=SPACE FUNCTION_ST=DWELLING UNITS GENERAL_FL=BUILDING STORY 3_SCHG 4,88.25,3.5,3.5,4.001E-002,24.991,0.300,0.700,AutoCalculate,NECB-ACTIVITY,No,3.8200E-008,1,3
 People Internal Gains Nominal, DU_BT=SPACE FUNCTION_ST=DWELLING UNITS GENERAL_FL=BUILDING STORY 3_SCHG 5 SPACE FUNCTION DWELLING UNITS GENERAL PEOPLE,NECB-G-OCCUPANCY,DU_BT=SPACE FUNCTION_ST=DWELLING UNITS GENERAL_FL=BUILDING STORY 3_SCHG 5,88.25,3.5,3.5,4.001E-002,24.991,0.300,0.700,AutoCalculate,NECB-ACTIVITY,No,3.8200E-008,1,3
 People Internal Gains Nominal, DU_BT=SPACE FUNCTION_ST=DWELLING UNITS GENERAL_FL=BUILDING STORY 3_SCHG 6 SPACE FUNCTION DWELLING UNITS GENERAL PEOPLE,NECB-G-OCCUPANCY,DU_BT=SPACE FUNCTION_ST=DWELLING UNITS GENERAL_FL=BUILDING STORY 3_SCHG 6,88.25,3.5,3.5,4.001E-002,24.991,0.300,0.700,AutoCalculate,NECB-ACTIVITY,No,3.8200E-008,1,3
 People Internal Gains Nominal, DU_BT=SPACE FUNCTION_ST=DWELLING UNITS GENERAL_FL=BUILDING STORY 3_SCHG 7 SPACE FUNCTION DWELLING UNITS GENERAL PEOPLE,NECB-G-OCCUPANCY,DU_BT=SPACE FUNCTION_ST=DWELLING UNITS GENERAL_FL=BUILDING STORY 3_SCHG 7,88.25,3.5,3.5,4.001E-002,24.991,0.300,0.700,AutoCalculate,NECB-ACTIVITY,No,3.8200E-008,1,3
 People Internal Gains Nominal, DU_BT=SPACE FUNCTION_ST=DWELLING UNITS GENERAL_FL=BUILDING STORY 4_SCHG SPACE FUNCTION DWELLING UNITS GENERAL PEOPLE,NECB-G-OCCUPANCY,DU_BT=SPACE FUNCTION_ST=DWELLING UNITS GENERAL_FL=BUILDING STORY 4_SCHG,88.25,3.5,3.5,4.001E-002,24.991,0.300,0.700,AutoCalculate,NECB-ACTIVITY,No,3.8200E-008,1,3
 People Internal Gains Nominal, DU_BT=SPACE FUNCTION_ST=DWELLING UNITS GENERAL_FL=BUILDING STORY 4_SCHG 1 SPACE FUNCTION DWELLING UNITS GENERAL PEOPLE,NECB-G-OCCUPANCY,DU_BT=SPACE FUNCTION_ST=DWELLING UNITS GENERAL_FL=BUILDING STORY 4_SCHG 1,88.25,3.5,3.5,4.001E-002,24.991,0.300,0.700,AutoCalculate,NECB-ACTIVITY,No,3.8200E-008,1,3
 People Internal Gains Nominal, DU_BT=SPACE FUNCTION_ST=DWELLING UNITS GENERAL_FL=BUILDING STORY 4_SCHG 2 SPACE FUNCTION DWELLING UNITS GENERAL PEOPLE,NECB-G-OCCUPANCY,DU_BT=SPACE FUNCTION_ST=DWELLING UNITS GENERAL_FL=BUILDING STORY 4_SCHG 2,88.25,3.5,3.5,4.001E-002,24.991,0.300,0.700,AutoCalculate,NECB-ACTIVITY,No,3.8200E-008,1,3
 People Internal Gains Nominal, DU_BT=SPACE FUNCTION_ST=DWELLING UNITS GENERAL_FL=BUILDING STORY 4_SCHG 3 SPACE FUNCTION DWELLING UNITS GENERAL PEOPLE,NECB-G-OCCUPANCY,DU_BT=SPACE FUNCTION_ST=DWELLING UNITS GENERAL_FL=BUILDING STORY 4_SCHG 3,88.25,3.5,3.5,4.001E-002,24.991,0.300,0.700,AutoCalculate,NECB-ACTIVITY,No,3.8200E-008,1,3
 People Internal Gains Nominal, DU_BT=SPACE FUNCTION_ST=DWELLING UNITS GENERAL_FL=BUILDING STORY 4_SCHG 4 SPACE FUNCTION DWELLING UNITS GENERAL PEOPLE,NECB-G-OCCUPANCY,DU_BT=SPACE FUNCTION_ST=DWELLING UNITS GENERAL_FL=BUILDING STORY 4_SCHG 4,88.25,3.5,3.5,4.001E-002,24.991,0.300,0.700,AutoCalculate,NECB-ACTIVITY,No,3.8200E-008,1,3
 People Internal Gains Nominal, DU_BT=SPACE FUNCTION_ST=DWELLING UNITS GENERAL_FL=BUILDING STORY 4_SCHG 5 SPACE FUNCTION DWELLING UNITS GENERAL PEOPLE,NECB-G-OCCUPANCY,DU_BT=SPACE FUNCTION_ST=DWELLING UNITS GENERAL_FL=BUILDING STORY 4_SCHG 5,88.25,3.5,3.5,4.001E-002,24.991,0.300,0.700,AutoCalculate,NECB-ACTIVITY,No,3.8200E-008,1,3
 People Internal Gains Nominal, DU_BT=SPACE FUNCTION_ST=DWELLING UNITS GENERAL_FL=BUILDING STORY 4_SCHG 6 SPACE FUNCTION DWELLING UNITS GENERAL PEOPLE,NECB-G-OCCUPANCY,DU_BT=SPACE FUNCTION_ST=DWELLING UNITS GENERAL_FL=BUILDING STORY 4_SCHG 6,88.25,3.5,3.5,4.001E-002,24.991,0.300,0.700,AutoCalculate,NECB-ACTIVITY,No,3.8200E-008,1,3
 People Internal Gains Nominal, DU_BT=SPACE FUNCTION_ST=DWELLING UNITS GENERAL_FL=BUILDING STORY 4_SCHG 7 SPACE FUNCTION DWELLING UNITS GENERAL PEOPLE,NECB-G-OCCUPANCY,DU_BT=SPACE FUNCTION_ST=DWELLING UNITS GENERAL_FL=BUILDING STORY 4_SCHG 7,88.25,3.5,3.5,4.001E-002,24.991,0.300,0.700,AutoCalculate,NECB-ACTIVITY,No,3.8200E-008,1,3
 People Internal Gains Nominal, DU_BT=SPACE FUNCTION_ST=DWELLING UNITS GENERAL_FL=BUILDING STORY 5_SCHG SPACE FUNCTION DWELLING UNITS GENERAL PEOPLE,NECB-G-OCCUPANCY,DU_BT=SPACE FUNCTION_ST=DWELLING UNITS GENERAL_FL=BUILDING STORY 5_SCHG,88.25,3.5,3.5,4.001E-002,24.991,0.300,0.700,AutoCalculate,NECB-ACTIVITY,No,3.8200E-008,1,3
 People Internal Gains Nominal, DU_BT=SPACE FUNCTION_ST=DWELLING UNITS GENERAL_FL=BUILDING STORY 5_SCHG 1 SPACE FUNCTION DWELLING UNITS GENERAL PEOPLE,NECB-G-OCCUPANCY,DU_BT=SPACE FUNCTION_ST=DWELLING UNITS GENERAL_FL=BUILDING STORY 5_SCHG 1,88.25,3.5,3.5,4.001E-002,24.991,0.300,0.700,AutoCalculate,NECB-ACTIVITY,No,3.8200E-008,1,3
 People Internal Gains Nominal, DU_BT=SPACE FUNCTION_ST=DWELLING UNITS GENERAL_FL=BUILDING STORY 5_SCHG 2 SPACE FUNCTION DWELLING UNITS GENERAL PEOPLE,NECB-G-OCCUPANCY,DU_BT=SPACE FUNCTION_ST=DWELLING UNITS GENERAL_FL=BUILDING STORY 5_SCHG 2,88.25,3.5,3.5,4.001E-002,24.991,0.300,0.700,AutoCalculate,NECB-ACTIVITY,No,3.8200E-008,1,3
 People Internal Gains Nominal, DU_BT=SPACE FUNCTION_ST=DWELLING UNITS GENERAL_FL=BUILDING STORY 5_SCHG 3 SPACE FUNCTION DWELLING UNITS GENERAL PEOPLE,NECB-G-OCCUPANCY,DU_BT=SPACE FUNCTION_ST=DWELLING UNITS GENERAL_FL=BUILDING STORY 5_SCHG 3,88.25,3.5,3.5,4.001E-002,24.991,0.300,0.700,AutoCalculate,NECB-ACTIVITY,No,3.8200E-008,1,3
 People Internal Gains Nominal, DU_BT=SPACE FUNCTION_ST=DWELLING UNITS GENERAL_FL=BUILDING STORY 5_SCHG 4 SPACE FUNCTION DWELLING UNITS GENERAL PEOPLE,NECB-G-OCCUPANCY,DU_BT=SPACE FUNCTION_ST=DWELLING UNITS GENERAL_FL=BUILDING STORY 5_SCHG 4,88.25,3.5,3.5,4.001E-002,24.991,0.300,0.700,AutoCalculate,NECB-ACTIVITY,No,3.8200E-008,1,3
 People Internal Gains Nominal, DU_BT=SPACE FUNCTION_ST=DWELLING UNITS GENERAL_FL=BUILDING STORY 5_SCHG 5 SPACE FUNCTION DWELLING UNITS GENERAL PEOPLE,NECB-G-OCCUPANCY,DU_BT=SPACE FUNCTION_ST=DWELLING UNITS GENERAL_FL=BUILDING STORY 5_SCHG 5,88.25,3.5,3.5,4.001E-002,24.991,0.300,0.700,AutoCalculate,NECB-ACTIVITY,No,3.8200E-008,1,3
 People Internal Gains Nominal, DU_BT=SPACE FUNCTION_ST=DWELLING UNITS GENERAL_FL=BUILDING STORY 5_SCHG 6 SPACE FUNCTION DWELLING UNITS GENERAL PEOPLE,NECB-G-OCCUPANCY,DU_BT=SPACE FUNCTION_ST=DWELLING UNITS GENERAL_FL=BUILDING STORY 5_SCHG 6,88.25,3.5,3.5,4.001E-002,24.991,0.300,0.700,AutoCalculate,NECB-ACTIVITY,No,3.8200E-008,1,3
 People Internal Gains Nominal, DU_BT=SPACE FUNCTION_ST=DWELLING UNITS GENERAL_FL=BUILDING STORY 5_SCHG 7 SPACE FUNCTION DWELLING UNITS GENERAL PEOPLE,NECB-G-OCCUPANCY,DU_BT=SPACE FUNCTION_ST=DWELLING UNITS GENERAL_FL=BUILDING STORY 5_SCHG 7,88.25,3.5,3.5,4.001E-002,24.991,0.300,0.700,AutoCalculate,NECB-ACTIVITY,No,3.8200E-008,1,3
 People Internal Gains Nominal, DU_BT=SPACE FUNCTION_ST=DWELLING UNITS GENERAL_FL=BUILDING STORY 6_SCHG SPACE FUNCTION DWELLING UNITS GENERAL PEOPLE,NECB-G-OCCUPANCY,DU_BT=SPACE FUNCTION_ST=DWELLING UNITS GENERAL_FL=BUILDING STORY 6_SCHG,88.25,3.5,3.5,4.001E-002,24.991,0.300,0.700,AutoCalculate,NECB-ACTIVITY,No,3.8200E-008,1,3
 People Internal Gains Nominal, DU_BT=SPACE FUNCTION_ST=DWELLING UNITS GENERAL_FL=BUILDING STORY 6_SCHG 1 SPACE FUNCTION DWELLING UNITS GENERAL PEOPLE,NECB-G-OCCUPANCY,DU_BT=SPACE FUNCTION_ST=DWELLING UNITS GENERAL_FL=BUILDING STORY 6_SCHG 1,88.25,3.5,3.5,4.001E-002,24.991,0.300,0.700,AutoCalculate,NECB-ACTIVITY,No,3.8200E-008,1,3
 People Internal Gains Nominal, DU_BT=SPACE FUNCTION_ST=DWELLING UNITS GENERAL_FL=BUILDING STORY 6_SCHG 2 SPACE FUNCTION DWELLING UNITS GENERAL PEOPLE,NECB-G-OCCUPANCY,DU_BT=SPACE FUNCTION_ST=DWELLING UNITS GENERAL_FL=BUILDING STORY 6_SCHG 2,88.25,3.5,3.5,4.001E-002,24.991,0.300,0.700,AutoCalculate,NECB-ACTIVITY,No,3.8200E-008,1,3
 People Internal Gains Nominal, DU_BT=SPACE FUNCTION_ST=DWELLING UNITS GENERAL_FL=BUILDING STORY 6_SCHG 3 SPACE FUNCTION DWELLING UNITS GENERAL PEOPLE,NECB-G-OCCUPANCY,DU_BT=SPACE FUNCTION_ST=DWELLING UNITS GENERAL_FL=BUILDING STORY 6_SCHG 3,88.25,3.5,3.5,4.001E-002,24.991,0.300,0.700,AutoCalculate,NECB-ACTIVITY,No,3.8200E-008,1,3
 People Internal Gains Nominal, DU_BT=SPACE FUNCTION_ST=DWELLING UNITS GENERAL_FL=BUILDING STORY 6_SCHG 4 SPACE FUNCTION DWELLING UNITS GENERAL PEOPLE,NECB-G-OCCUPANCY,DU_BT=SPACE FUNCTION_ST=DWELLING UNITS GENERAL_FL=BUILDING STORY 6_SCHG 4,88.25,3.5,3.5,4.001E-002,24.991,0.300,0.700,AutoCalculate,NECB-ACTIVITY,No,3.8200E-008,1,3
 People Internal Gains Nominal, DU_BT=SPACE FUNCTION_ST=DWELLING UNITS GENERAL_FL=BUILDING STORY 6_SCHG 5 SPACE FUNCTION DWELLING UNITS GENERAL PEOPLE,NECB-G-OCCUPANCY,DU_BT=SPACE FUNCTION_ST=DWELLING UNITS GENERAL_FL=BUILDING STORY 6_SCHG 5,88.25,3.5,3.5,4.001E-002,24.991,0.300,0.700,AutoCalculate,NECB-ACTIVITY,No,3.8200E-008,1,3
 People Internal Gains Nominal, DU_BT=SPACE FUNCTION_ST=DWELLING UNITS GENERAL_FL=BUILDING STORY 6_SCHG 6 SPACE FUNCTION DWELLING UNITS GENERAL PEOPLE,NECB-G-OCCUPANCY,DU_BT=SPACE FUNCTION_ST=DWELLING UNITS GENERAL_FL=BUILDING STORY 6_SCHG 6,88.25,3.5,3.5,4.001E-002,24.991,0.300,0.700,AutoCalculate,NECB-ACTIVITY,No,3.8200E-008,1,3
 People Internal Gains Nominal, DU_BT=SPACE FUNCTION_ST=DWELLING UNITS GENERAL_FL=BUILDING STORY 6_SCHG 7 SPACE FUNCTION DWELLING UNITS GENERAL PEOPLE,NECB-G-OCCUPANCY,DU_BT=SPACE FUNCTION_ST=DWELLING UNITS GENERAL_FL=BUILDING STORY 6_SCHG 7,88.25,3.5,3.5,4.001E-002,24.991,0.300,0.700,AutoCalculate,NECB-ACTIVITY,No,3.8200E-008,1,3
 People Internal Gains Nominal, DU_BT=SPACE FUNCTION_ST=DWELLING UNITS GENERAL_FL=BUILDING STORY 7_SCHG SPACE FUNCTION DWELLING UNITS GENERAL PEOPLE,NECB-G-OCCUPANCY,DU_BT=SPACE FUNCTION_ST=DWELLING UNITS GENERAL_FL=BUILDING STORY 7_SCHG,88.25,3.5,3.5,4.001E-002,24.991,0.300,0.700,AutoCalculate,NECB-ACTIVITY,No,3.8200E-008,1,3
 People Internal Gains Nominal, DU_BT=SPACE FUNCTION_ST=DWELLING UNITS GENERAL_FL=BUILDING STORY 7_SCHG 1 SPACE FUNCTION DWELLING UNITS GENERAL PEOPLE,NECB-G-OCCUPANCY,DU_BT=SPACE FUNCTION_ST=DWELLING UNITS GENERAL_FL=BUILDING STORY 7_SCHG 1,88.25,3.5,3.5,4.001E-002,24.991,0.300,0.700,AutoCalculate,NECB-ACTIVITY,No,3.8200E-008,1,3
 People Internal Gains Nominal, DU_BT=SPACE FUNCTION_ST=DWELLING UNITS GENERAL_FL=BUILDING STORY 7_SCHG 2 SPACE FUNCTION DWELLING UNITS GENERAL PEOPLE,NECB-G-OCCUPANCY,DU_BT=SPACE FUNCTION_ST=DWELLING UNITS GENERAL_FL=BUILDING STORY 7_SCHG 2,88.25,3.5,3.5,4.001E-002,24.991,0.300,0.700,AutoCalculate,NECB-ACTIVITY,No,3.8200E-008,1,3
 People Internal Gains Nominal, DU_BT=SPACE FUNCTION_ST=DWELLING UNITS GENERAL_FL=BUILDING STORY 7_SCHG 3 SPACE FUNCTION DWELLING UNITS GENERAL PEOPLE,NECB-G-OCCUPANCY,DU_BT=SPACE FUNCTION_ST=DWELLING UNITS GENERAL_FL=BUILDING STORY 7_SCHG 3,88.25,3.5,3.5,4.001E-002,24.991,0.300,0.700,AutoCalculate,NECB-ACTIVITY,No,3.8200E-008,1,3
 People Internal Gains Nominal, DU_BT=SPACE FUNCTION_ST=DWELLING UNITS GENERAL_FL=BUILDING STORY 7_SCHG 4 SPACE FUNCTION DWELLING UNITS GENERAL PEOPLE,NECB-G-OCCUPANCY,DU_BT=SPACE FUNCTION_ST=DWELLING UNITS GENERAL_FL=BUILDING STORY 7_SCHG 4,88.25,3.5,3.5,4.001E-002,24.991,0.300,0.700,AutoCalculate,NECB-ACTIVITY,No,3.8200E-008,1,3
 People Internal Gains Nominal, DU_BT=SPACE FUNCTION_ST=DWELLING UNITS GENERAL_FL=BUILDING STORY 7_SCHG 5 SPACE FUNCTION DWELLING UNITS GENERAL PEOPLE,NECB-G-OCCUPANCY,DU_BT=SPACE FUNCTION_ST=DWELLING UNITS GENERAL_FL=BUILDING STORY 7_SCHG 5,88.25,3.5,3.5,4.001E-002,24.991,0.300,0.700,AutoCalculate,NECB-ACTIVITY,No,3.8200E-008,1,3
 People Internal Gains Nominal, DU_BT=SPACE FUNCTION_ST=DWELLING UNITS GENERAL_FL=BUILDING STORY 7_SCHG 6 SPACE FUNCTION DWELLING UNITS GENERAL PEOPLE,NECB-G-OCCUPANCY,DU_BT=SPACE FUNCTION_ST=DWELLING UNITS GENERAL_FL=BUILDING STORY 7_SCHG 6,88.25,3.5,3.5,4.001E-002,24.991,0.300,0.700,AutoCalculate,NECB-ACTIVITY,No,3.8200E-008,1,3
 People Internal Gains Nominal, DU_BT=SPACE FUNCTION_ST=DWELLING UNITS GENERAL_FL=BUILDING STORY 7_SCHG 7 SPACE FUNCTION DWELLING UNITS GENERAL PEOPLE,NECB-G-OCCUPANCY,DU_BT=SPACE FUNCTION_ST=DWELLING UNITS GENERAL_FL=BUILDING STORY 7_SCHG 7,88.25,3.5,3.5,4.001E-002,24.991,0.300,0.700,AutoCalculate,NECB-ACTIVITY,No,3.8200E-008,1,3
 People Internal Gains Nominal, DU_BT=SPACE FUNCTION_ST=DWELLING UNITS GENERAL_FL=BUILDING STORY 8_SCHG SPACE FUNCTION DWELLING UNITS GENERAL PEOPLE,NECB-G-OCCUPANCY,DU_BT=SPACE FUNCTION_ST=DWELLING UNITS GENERAL_FL=BUILDING STORY 8_SCHG,88.25,3.5,3.5,4.001E-002,24.991,0.300,0.700,AutoCalculate,NECB-ACTIVITY,No,3.8200E-008,1,3
 People Internal Gains Nominal, DU_BT=SPACE FUNCTION_ST=DWELLING UNITS GENERAL_FL=BUILDING STORY 8_SCHG 1 SPACE FUNCTION DWELLING UNITS GENERAL PEOPLE,NECB-G-OCCUPANCY,DU_BT=SPACE FUNCTION_ST=DWELLING UNITS GENERAL_FL=BUILDING STORY 8_SCHG 1,88.25,3.5,3.5,4.001E-002,24.991,0.300,0.700,AutoCalculate,NECB-ACTIVITY,No,3.8200E-008,1,3
 People Internal Gains Nominal, DU_BT=SPACE FUNCTION_ST=DWELLING UNITS GENERAL_FL=BUILDING STORY 8_SCHG 2 SPACE FUNCTION DWELLING UNITS GENERAL PEOPLE,NECB-G-OCCUPANCY,DU_BT=SPACE FUNCTION_ST=DWELLING UNITS GENERAL_FL=BUILDING STORY 8_SCHG 2,88.25,3.5,3.5,4.001E-002,24.991,0.300,0.700,AutoCalculate,NECB-ACTIVITY,No,3.8200E-008,1,3
 People Internal Gains Nominal, DU_BT=SPACE FUNCTION_ST=DWELLING UNITS GENERAL_FL=BUILDING STORY 8_SCHG 3 SPACE FUNCTION DWELLING UNITS GENERAL PEOPLE,NECB-G-OCCUPANCY,DU_BT=SPACE FUNCTION_ST=DWELLING UNITS GENERAL_FL=BUILDING STORY 8_SCHG 3,88.25,3.5,3.5,4.001E-002,24.991,0.300,0.700,AutoCalculate,NECB-ACTIVITY,No,3.8200E-008,1,3
 People Internal Gains Nominal, DU_BT=SPACE FUNCTION_ST=DWELLING UNITS GENERAL_FL=BUILDING STORY 8_SCHG 4 SPACE FUNCTION DWELLING UNITS GENERAL PEOPLE,NECB-G-OCCUPANCY,DU_BT=SPACE FUNCTION_ST=DWELLING UNITS GENERAL_FL=BUILDING STORY 8_SCHG 4,88.25,3.5,3.5,4.001E-002,24.991,0.300,0.700,AutoCalculate,NECB-ACTIVITY,No,3.8200E-008,1,3
 People Internal Gains Nominal, DU_BT=SPACE FUNCTION_ST=DWELLING UNITS GENERAL_FL=BUILDING STORY 8_SCHG 5 SPACE FUNCTION DWELLING UNITS GENERAL PEOPLE,NECB-G-OCCUPANCY,DU_BT=SPACE FUNCTION_ST=DWELLING UNITS GENERAL_FL=BUILDING STORY 8_SCHG 5,88.25,3.5,3.5,4.001E-002,24.991,0.300,0.700,AutoCalculate,NECB-ACTIVITY,No,3.8200E-008,1,3
 People Internal Gains Nominal, DU_BT=SPACE FUNCTION_ST=DWELLING UNITS GENERAL_FL=BUILDING STORY 8_SCHG 6 SPACE FUNCTION DWELLING UNITS GENERAL PEOPLE,NECB-G-OCCUPANCY,DU_BT=SPACE FUNCTION_ST=DWELLING UNITS GENERAL_FL=BUILDING STORY 8_SCHG 6,88.25,3.5,3.5,4.001E-002,24.991,0.300,0.700,AutoCalculate,NECB-ACTIVITY,No,3.8200E-008,1,3
 People Internal Gains Nominal, DU_BT=SPACE FUNCTION_ST=DWELLING UNITS GENERAL_FL=BUILDING STORY 8_SCHG 7 SPACE FUNCTION DWELLING UNITS GENERAL PEOPLE,NECB-G-OCCUPANCY,DU_BT=SPACE FUNCTION_ST=DWELLING UNITS GENERAL_FL=BUILDING STORY 8_SCHG 7,88.25,3.5,3.5,4.001E-002,24.991,0.300,0.700,AutoCalculate,NECB-ACTIVITY,No,3.8200E-008,1,3
 People Internal Gains Nominal, DU_BT=SPACE FUNCTION_ST=DWELLING UNITS GENERAL_FL=BUILDING STORY 9_SCHG SPACE FUNCTION DWELLING UNITS GENERAL PEOPLE,NECB-G-OCCUPANCY,DU_BT=SPACE FUNCTION_ST=DWELLING UNITS GENERAL_FL=BUILDING STORY 9_SCHG,88.25,3.5,3.5,4.001E-002,24.991,0.300,0.700,AutoCalculate,NECB-ACTIVITY,No,3.8200E-008,1,3
 People Internal Gains Nominal, DU_BT=SPACE FUNCTION_ST=DWELLING UNITS GENERAL_FL=BUILDING STORY 9_SCHG 1 SPACE FUNCTION DWELLING UNITS GENERAL PEOPLE,NECB-G-OCCUPANCY,DU_BT=SPACE FUNCTION_ST=DWELLING UNITS GENERAL_FL=BUILDING STORY 9_SCHG 1,88.25,3.5,3.5,4.001E-002,24.991,0.300,0.700,AutoCalculate,NECB-ACTIVITY,No,3.8200E-008,1,3
 People Internal Gains Nominal, DU_BT=SPACE FUNCTION_ST=DWELLING UNITS GENERAL_FL=BUILDING STORY 9_SCHG 2 SPACE FUNCTION DWELLING UNITS GENERAL PEOPLE,NECB-G-OCCUPANCY,DU_BT=SPACE FUNCTION_ST=DWELLING UNITS GENERAL_FL=BUILDING STORY 9_SCHG 2,88.25,3.5,3.5,4.001E-002,24.991,0.300,0.700,AutoCalculate,NECB-ACTIVITY,No,3.8200E-008,1,3
 People Internal Gains Nominal, DU_BT=SPACE FUNCTION_ST=DWELLING UNITS GENERAL_FL=BUILDING STORY 9_SCHG 3 SPACE FUNCTION DWELLING UNITS GENERAL PEOPLE,NECB-G-OCCUPANCY,DU_BT=SPACE FUNCTION_ST=DWELLING UNITS GENERAL_FL=BUILDING STORY 9_SCHG 3,88.25,3.5,3.5,4.001E-002,24.991,0.300,0.700,AutoCalculate,NECB-ACTIVITY,No,3.8200E-008,1,3
 People Internal Gains Nominal, DU_BT=SPACE FUNCTION_ST=DWELLING UNITS GENERAL_FL=BUILDING STORY 9_SCHG 4 SPACE FUNCTION DWELLING UNITS GENERAL PEOPLE,NECB-G-OCCUPANCY,DU_BT=SPACE FUNCTION_ST=DWELLING UNITS GENERAL_FL=BUILDING STORY 9_SCHG 4,88.25,3.5,3.5,4.001E-002,24.991,0.300,0.700,AutoCalculate,NECB-ACTIVITY,No,3.8200E-008,1,3
 People Internal Gains Nominal, DU_BT=SPACE FUNCTION_ST=DWELLING UNITS GENERAL_FL=BUILDING STORY 9_SCHG 5 SPACE FUNCTION DWELLING UNITS GENERAL PEOPLE,NECB-G-OCCUPANCY,DU_BT=SPACE FUNCTION_ST=DWELLING UNITS GENERAL_FL=BUILDING STORY 9_SCHG 5,88.25,3.5,3.5,4.001E-002,24.991,0.300,0.700,AutoCalculate,NECB-ACTIVITY,No,3.8200E-008,1,3
 People Internal Gains Nominal, DU_BT=SPACE FUNCTION_ST=DWELLING UNITS GENERAL_FL=BUILDING STORY 9_SCHG 6 SPACE FUNCTION DWELLING UNITS GENERAL PEOPLE,NECB-G-OCCUPANCY,DU_BT=SPACE FUNCTION_ST=DWELLING UNITS GENERAL_FL=BUILDING STORY 9_SCHG 6,88.25,3.5,3.5,4.001E-002,24.991,0.300,0.700,AutoCalculate,NECB-ACTIVITY,No,3.8200E-008,1,3
 People Internal Gains Nominal, DU_BT=SPACE FUNCTION_ST=DWELLING UNITS GENERAL_FL=BUILDING STORY 9_SCHG 7 SPACE FUNCTION DWELLING UNITS GENERAL PEOPLE,NECB-G-OCCUPANCY,DU_BT=SPACE FUNCTION_ST=DWELLING UNITS GENERAL_FL=BUILDING STORY 9_SCHG 7,88.25,3.5,3.5,4.001E-002,24.991,0.300,0.700,AutoCalculate,NECB-ACTIVITY,No,3.8200E-008,1,3
 People Internal Gains Nominal, ALL_ST=OFFICE ENCLOSED <= 25 M2_FL=BUILDING STORY 1_SCH=A SPACE FUNCTION OFFICE ENCLOSED <= 25 M2 PEOPLE,NECB-A-OCCUPANCY,ALL_ST=OFFICE ENCLOSED <= 25 M2_FL=BUILDING STORY 1_SCH=A,88.25,4.4,4.4,5.002E-002,19.993,0.300,0.700,AutoCalculate,NECB-ACTIVITY,No,3.8200E-008,0,4
! <Lights Internal Gains Nominal>,Name,Schedule Name,Zone Name,Zone Floor Area {m2},# Zone Occupants,Lighting Level {W},Lights/Floor Area {W/m2},Lights per person {W/person},Fraction Return Air,Fraction Radiant,Fraction Short Wave,Fraction Convected,Fraction Replaceable,End-Use Category,Nominal Minimum Lighting Level {W},Nominal Maximum Lighting Level {W}
 Lights Internal Gains Nominal, WILD_ST=CORRIDOR/TRANSITION AREA OTHER-SCH-G_FL=BUILDING STORY 10_SCH=G SPACE FUNCTION CORRIDOR/TRANSITION AREA OTHER-SCH-G LIGHTS 85.0 PERCENT REDUCTION,NECB-G-LIGHTING,WILD_ST=CORRIDOR/TRANSITION AREA OTHER-SCH-G_FL=BUILDING STORY 10_SCH=G,77.66,0.8,102.509,1.320,131.952,0.000,0.500,0.200,0.300,1.000,General,0.000,92.258
 Lights Internal Gains Nominal, WILD_ST=CORRIDOR/TRANSITION AREA OTHER-SCH-G_FL=BUILDING STORY 1_SCH=G SPACE FUNCTION CORRIDOR/TRANSITION AREA OTHER-SCH-G LIGHTS 85.0 PERCENT REDUCTION,NECB-G-LIGHTING,WILD_ST=CORRIDOR/TRANSITION AREA OTHER-SCH-G_FL=BUILDING STORY 1_SCH=G,77.66,0.8,102.509,1.320,131.952,0.000,0.500,0.200,0.300,1.000,General,0.000,92.258
 Lights Internal Gains Nominal, WILD_ST=CORRIDOR/TRANSITION AREA OTHER-SCH-G_FL=BUILDING STORY 2_SCH=G SPACE FUNCTION CORRIDOR/TRANSITION AREA OTHER-SCH-G LIGHTS 85.0 PERCENT REDUCTION,NECB-G-LIGHTING,WILD_ST=CORRIDOR/TRANSITION AREA OTHER-SCH-G_FL=BUILDING STORY 2_SCH=G,77.66,0.8,102.509,1.320,131.952,0.000,0.500,0.200,0.300,1.000,General,0.000,92.258
 Lights Internal Gains Nominal, WILD_ST=CORRIDOR/TRANSITION AREA OTHER-SCH-G_FL=BUILDING STORY 3_SCH=G SPACE FUNCTION CORRIDOR/TRANSITION AREA OTHER-SCH-G LIGHTS 85.0 PERCENT REDUCTION,NECB-G-LIGHTING,WILD_ST=CORRIDOR/TRANSITION AREA OTHER-SCH-G_FL=BUILDING STORY 3_SCH=G,77.66,0.8,102.509,1.320,131.952,0.000,0.500,0.200,0.300,1.000,General,0.000,92.258
 Lights Internal Gains Nominal, WILD_ST=CORRIDOR/TRANSITION AREA OTHER-SCH-G_FL=BUILDING STORY 4_SCH=G SPACE FUNCTION CORRIDOR/TRANSITION AREA OTHER-SCH-G LIGHTS 85.0 PERCENT REDUCTION,NECB-G-LIGHTING,WILD_ST=CORRIDOR/TRANSITION AREA OTHER-SCH-G_FL=BUILDING STORY 4_SCH=G,77.66,0.8,102.509,1.320,131.952,0.000,0.500,0.200,0.300,1.000,General,0.000,92.258
 Lights Internal Gains Nominal, WILD_ST=CORRIDOR/TRANSITION AREA OTHER-SCH-G_FL=BUILDING STORY 5_SCH=G SPACE FUNCTION CORRIDOR/TRANSITION AREA OTHER-SCH-G LIGHTS 85.0 PERCENT REDUCTION,NECB-G-LIGHTING,WILD_ST=CORRIDOR/TRANSITION AREA OTHER-SCH-G_FL=BUILDING STORY 5_SCH=G,77.66,0.8,102.509,1.320,131.952,0.000,0.500,0.200,0.300,1.000,General,0.000,92.258
 Lights Internal Gains Nominal, WILD_ST=CORRIDOR/TRANSITION AREA OTHER-SCH-G_FL=BUILDING STORY 6_SCH=G SPACE FUNCTION CORRIDOR/TRANSITION AREA OTHER-SCH-G LIGHTS 85.0 PERCENT REDUCTION,NECB-G-LIGHTING,WILD_ST=CORRIDOR/TRANSITION AREA OTHER-SCH-G_FL=BUILDING STORY 6_SCH=G,77.66,0.8,102.509,1.320,131.952,0.000,0.500,0.200,0.300,1.000,General,0.000,92.258
 Lights Internal Gains Nominal, WILD_ST=CORRIDOR/TRANSITION AREA OTHER-SCH-G_FL=BUILDING STORY 7_SCH=G SPACE FUNCTION CORRIDOR/TRANSITION AREA OTHER-SCH-G LIGHTS 85.0 PERCENT REDUCTION,NECB-G-LIGHTING,WILD_ST=CORRIDOR/TRANSITION AREA OTHER-SCH-G_FL=BUILDING STORY 7_SCH=G,77.66,0.8,102.509,1.320,131.952,0.000,0.500,0.200,0.300,1.000,General,0.000,92.258
 Lights Internal Gains Nominal, WILD_ST=CORRIDOR/TRANSITION AREA OTHER-SCH-G_FL=BUILDING STORY 8_SCH=G SPACE FUNCTION CORRIDOR/TRANSITION AREA OTHER-SCH-G LIGHTS 85.0 PERCENT REDUCTION,NECB-G-LIGHTING,WILD_ST=CORRIDOR/TRANSITION AREA OTHER-SCH-G_FL=BUILDING STORY 8_SCH=G,77.66,0.8,102.509,1.320,131.952,0.000,0.500,0.200,0.300,1.000,General,0.000,92.258
 Lights Internal Gains Nominal, WILD_ST=CORRIDOR/TRANSITION AREA OTHER-SCH-G_FL=BUILDING STORY 9_SCH=G SPACE FUNCTION CORRIDOR/TRANSITION AREA OTHER-SCH-G LIGHTS 85.0 PERCENT REDUCTION,NECB-G-LIGHTING,WILD_ST=CORRIDOR/TRANSITION AREA OTHER-SCH-G_FL=BUILDING STORY 9_SCH=G,77.66,0.8,102.509,1.320,131.952,0.000,0.500,0.200,0.300,1.000,General,0.000,92.258
 Lights Internal Gains Nominal, DU_BT=SPACE FUNCTION_ST=DWELLING UNITS GENERAL_FL=BUILDING STORY 10_SCHG SPACE FUNCTION DWELLING UNITS GENERAL LIGHTS 85.0 PERCENT REDUCTION,NECB-G-LIGHTING,DU_BT=SPACE FUNCTION_ST=DWELLING UNITS GENERAL_FL=BUILDING STORY 10_SCHG,88.25,3.5,132.373,1.500,37.486,0.000,0.500,0.200,0.300,1.000,General,0.000,119.136
 Lights Internal Gains Nominal, DU_BT=SPACE FUNCTION_ST=DWELLING UNITS GENERAL_FL=BUILDING STORY 10_SCHG 1 SPACE FUNCTION DWELLING UNITS GENERAL LIGHTS 85.0 PERCENT REDUCTION,NECB-G-LIGHTING,DU_BT=SPACE FUNCTION_ST=DWELLING UNITS GENERAL_FL=BUILDING STORY 10_SCHG 1,88.25,3.5,132.373,1.500,37.486,0.000,0.500,0.200,0.300,1.000,General,0.000,119.136
 Lights Internal Gains Nominal, DU_BT=SPACE FUNCTION_ST=DWELLING UNITS GENERAL_FL=BUILDING STORY 10_SCHG 2 SPACE FUNCTION DWELLING UNITS GENERAL LIGHTS 85.0 PERCENT REDUCTION,NECB-G-LIGHTING,DU_BT=SPACE FUNCTION_ST=DWELLING UNITS GENERAL_FL=BUILDING STORY 10_SCHG 2,88.25,3.5,132.373,1.500,37.486,0.000,0.500,0.200,0.300,1.000,General,0.000,119.136
 Lights Internal Gains Nominal, DU_BT=SPACE FUNCTION_ST=DWELLING UNITS GENERAL_FL=BUILDING STORY 10_SCHG 3 SPACE FUNCTION DWELLING UNITS GENERAL LIGHTS 85.0 PERCENT REDUCTION,NECB-G-LIGHTING,DU_BT=SPACE FUNCTION_ST=DWELLING UNITS GENERAL_FL=BUILDING STORY 10_SCHG 3,88.25,3.5,132.373,1.500,37.486,0.000,0.500,0.200,0.300,1.000,General,0.000,119.136
 Lights Internal Gains Nominal, DU_BT=SPACE FUNCTION_ST=DWELLING UNITS GENERAL_FL=BUILDING STORY 10_SCHG 4 SPACE FUNCTION DWELLING UNITS GENERAL LIGHTS 85.0 PERCENT REDUCTION,NECB-G-LIGHTING,DU_BT=SPACE FUNCTION_ST=DWELLING UNITS GENERAL_FL=BUILDING STORY 10_SCHG 4,88.25,3.5,132.373,1.500,37.486,0.000,0.500,0.200,0.300,1.000,General,0.000,119.136
[...]
 Component Sizing Information, Pump:ConstantSpeed, SERVICE WATER LOOP PUMP, Design Power Consumption [W], 646.50476
 Component Sizing Information, WaterHeater:Mixed, 704GAL ELECTRICITY WATER HEATER - 475KBTU/HR 1.0 THERM EFF 1, Use Side Design Flow Rate [m3/s], 7.42670E-004
! <Environment>,Environment Name,Environment Type, Start Date, End Date, Start DayOfWeek, Duration {#days}, Source:Start DayOfWeek,  Use Daylight Saving, Use Holidays, Apply Weekend Holiday Rule,  Use Rain Values, Use Snow Values
! <Environment:Special Days>, Special Day Name, Special Day Type, Source, Start Date, Duration {#days}
! <Environment:Daylight Saving>, Daylight Saving Indicator, Source, Start Date, End Date
! <Environment:WarmupDays>, NumberofWarmupDays
Environment,RUN PERIOD 1,WeatherFileRunPeriod,01/01,12/31,Sunday,365,Use RunPeriod Specified Day,No,No,No,Yes,Yes
Environment:Daylight Saving,No,RunPeriod Object
Environment:WarmupDays,  7
! <Tabular Report>,Style,Unit Conversion
Tabular Report,HTML,None
! <Warmup Convergence Information>,Zone Name,Environment Type/Name,Average Warmup Temperature Difference {deltaC},Std Dev Warmup Temperature Difference {deltaC},Max Temperature Pass/Fail Convergence,Min Temperature Pass/Fail Convergence,Average Warmup Load Difference {W},Std Dev Warmup Load Difference {W},Heating Load Pass/Fail Convergence,Cooling Load Pass/Fail Convergence
 Warmup Convergence Information,ALL_ST=OFFICE ENCLOSED <= 25 M2_FL=BUILDING STORY 1_SCH=A,RunPeriod: RUN PERIOD 1,3.3841900875E-002,8.9024464441E-002,Pass,Pass,9.9249199669E-002,0.1137169088,Pass,Pass
 Warmup Convergence Information,DU_BT=SPACE FUNCTION_ST=DWELLING UNITS GENERAL_FL=BUILDING STORY 10_SCHG,RunPeriod: RUN PERIOD 1,0.3398318417,0.6194070202,Pass,Pass,1.7180269301,4.6880852324,Pass,Pass
 Warmup Convergence Information,DU_BT=SPACE FUNCTION_ST=DWELLING UNITS GENERAL_FL=BUILDING STORY 10_SCHG 1,RunPeriod: RUN PERIOD 1,0.3337272744,0.6636795281,Pass,Pass,0.4157231286,0.5126238716,Pass,Pass
 Warmup Convergence Information,DU_BT=SPACE FUNCTION_ST=DWELLING UNITS GENERAL_FL=BUILDING STORY 10_SCHG 2,RunPeriod: RUN PERIOD 1,0.3357209686,0.6309713439,Pass,Pass,0.9562906756,2.7199947168,Pass,Pass
 Warmup Convergence Information,DU_BT=SPACE FUNCTION_ST=DWELLING UNITS GENERAL_FL=BUILDING STORY 10_SCHG 3,RunPeriod: RUN PERIOD 1,0.3368999252,0.6261623733,Pass,Pass,1.6789388004,4.7582564920,Pass,Pass
 Warmup Convergence Information,DU_BT=SPACE FUNCTION_ST=DWELLING UNITS GENERAL_FL=BUILDING STORY 10_SCHG 4,RunPeriod: RUN PERIOD 1,0.3337444880,0.6616583144,Pass,Pass,0.5093306750,0.6025462208,Pass,Pass
 Warmup Convergence Information,DU_BT=SPACE FUNCTION_ST=DWELLING UNITS GENERAL_FL=BUILDING STORY 10_SCHG 5,RunPeriod: RUN PERIOD 1,0.3546271289,0.5427641926,Pass,Pass,0.4898541530,0.5949200750,Pass,Pass
 Warmup Convergence Information,DU_BT=SPACE FUNCTION_ST=DWELLING UNITS GENERAL_FL=BUILDING STORY 10_SCHG 6,RunPeriod: RUN PERIOD 1,0.3357711489,0.6306528067,Pass,Pass,1.0807958618,3.2329586746,Pass,Pass
 Warmup Convergence Information,DU_BT=SPACE FUNCTION_ST=DWELLING UNITS GENERAL_FL=BUILDING STORY 10_SCHG 7,RunPeriod: RUN PERIOD 1,0.3337169262,0.6578197473,Pass,Pass,2.4411537595,6.1491483613,Pass,Pass
 Warmup Convergence Information,DU_BT=SPACE FUNCTION_ST=DWELLING UNITS GENERAL_FL=BUILDING STORY 1_SCHG,RunPeriod: RUN PERIOD 1,0.3031853255,0.4952314322,Pass,Pass,1.0183728896,2.8684563115,Pass,Pass
 Warmup Convergence Information,DU_BT=SPACE FUNCTION_ST=DWELLING UNITS GENERAL_FL=BUILDING STORY 1_SCHG 1,RunPeriod: RUN PERIOD 1,0.3133200529,0.5019875755,Pass,Pass,0.8567003127,2.2117365202,Pass,Pass
 Warmup Convergence Information,DU_BT=SPACE FUNCTION_ST=DWELLING UNITS GENERAL_FL=BUILDING STORY 1_SCHG 2,RunPeriod: RUN PERIOD 1,0.3055948816,0.4860603963,Pass,Pass,2.6337740487,8.8624106117,Pass,Pass
 Warmup Convergence Information,DU_BT=SPACE FUNCTION_ST=DWELLING UNITS GENERAL_FL=BUILDING STORY 1_SCHG 3,RunPeriod: RUN PERIOD 1,0.3036178841,0.5004516701,Pass,Pass,9.5696985570,31.0656876136,Pass,Pass
 Warmup Convergence Information,DU_BT=SPACE FUNCTION_ST=DWELLING UNITS GENERAL_FL=BUILDING STORY 1_SCHG 4,RunPeriod: RUN PERIOD 1,0.3118526443,0.5006282474,Pass,Pass,0.7677721140,1.7170839340,Pass,Pass
 Warmup Convergence Information,DU_BT=SPACE FUNCTION_ST=DWELLING UNITS GENERAL_FL=BUILDING STORY 1_SCHG 5,RunPeriod: RUN PERIOD 1,0.3055166088,0.4861327895,Pass,Pass,2.4370127246,8.5444902617,Pass,Pass
 Warmup Convergence Information,DU_BT=SPACE FUNCTION_ST=DWELLING UNITS GENERAL_FL=BUILDING STORY 1_SCHG 6,RunPeriod: RUN PERIOD 1,0.3056590505,0.4936926977,Pass,Pass,2.8425488355,11.3215687601,Pass,Pass
 Warmup Convergence Information,DU_BT=SPACE FUNCTION_ST=DWELLING UNITS GENERAL_FL=BUILDING STORY 2_SCHG,RunPeriod: RUN PERIOD 1,0.3067671557,0.4891871800,Pass,Pass,10.3706407142,45.1833416845,Pass,Pass
 Warmup Convergence Information,DU_BT=SPACE FUNCTION_ST=DWELLING UNITS GENERAL_FL=BUILDING STORY 2_SCHG 1,RunPeriod: RUN PERIOD 1,0.2988766846,0.5154549350,Pass,Pass,19.7936795307,57.9853084290,Pass,Pass
 Warmup Convergence Information,DU_BT=SPACE FUNCTION_ST=DWELLING UNITS GENERAL_FL=BUILDING STORY 2_SCHG 2,RunPeriod: RUN PERIOD 1,0.3243131934,0.5102214232,Pass,Pass,0.6964317260,1.3018790745,Pass,Pass
 Warmup Convergence Information,DU_BT=SPACE FUNCTION_ST=DWELLING UNITS GENERAL_FL=BUILDING STORY 2_SCHG 3,RunPeriod: RUN PERIOD 1,0.3080023892,0.5196236826,Pass,Pass,4.6128555372,19.6370203605,Pass,Pass
 Warmup Convergence Information,DU_BT=SPACE FUNCTION_ST=DWELLING UNITS GENERAL_FL=BUILDING STORY 2_SCHG 4,RunPeriod: RUN PERIOD 1,0.3150130216,0.5005718630,Pass,Pass,0.8690568283,2.0041654837,Pass,Pass
 Warmup Convergence Information,DU_BT=SPACE FUNCTION_ST=DWELLING UNITS GENERAL_FL=BUILDING STORY 2_SCHG 5,RunPeriod: RUN PERIOD 1,0.3071372781,0.4900001063,Pass,Pass,7.4461113902,31.7469866429,Pass,Pass
 Warmup Convergence Information,DU_BT=SPACE FUNCTION_ST=DWELLING UNITS GENERAL_FL=BUILDING STORY 2_SCHG 6,RunPeriod: RUN PERIOD 1,0.3214416370,0.5150753199,Pass,Pass,0.6378119896,1.5669747623,Pass,Pass
 Warmup Convergence Information,DU_BT=SPACE FUNCTION_ST=DWELLING UNITS GENERAL_FL=BUILDING STORY 2_SCHG 7,RunPeriod: RUN PERIOD 1,0.3186511521,0.5157876498,Pass,Pass,1.2501976634,1.9081696709,Pass,Pass
 Warmup Convergence Information,DU_BT=SPACE FUNCTION_ST=DWELLING UNITS GENERAL_FL=BUILDING STORY 3_SCHG,RunPeriod: RUN PERIOD 1,0.3177944320,0.5143418110,Pass,Pass,0.5889078909,1.2866193116,Pass,Pass
 Warmup Convergence Information,DU_BT=SPACE FUNCTION_ST=DWELLING UNITS GENERAL_FL=BUILDING STORY 3_SCHG 1,RunPeriod: RUN PERIOD 1,0.3128067823,0.5223053725,Pass,Pass,17.2870067862,80.6930945934,Pass,Pass
 Warmup Convergence Information,DU_BT=SPACE FUNCTION_ST=DWELLING UNITS GENERAL_FL=BUILDING STORY 3_SCHG 2,RunPeriod: RUN PERIOD 1,0.3160612012,0.5231243125,Pass,Pass,140.7254704341,672.8599981534,Pass,Pass
 Warmup Convergence Information,DU_BT=SPACE FUNCTION_ST=DWELLING UNITS GENERAL_FL=BUILDING STORY 3_SCHG 3,RunPeriod: RUN PERIOD 1,0.3195014441,0.5116873775,Pass,Pass,0.7488254275,1.9058298799,Pass,Pass
 Warmup Convergence Information,DU_BT=SPACE FUNCTION_ST=DWELLING UNITS GENERAL_FL=BUILDING STORY 3_SCHG 4,RunPeriod: RUN PERIOD 1,0.3271269949,0.5143616683,Pass,Pass,0.7348156943,1.3281111829,Pass,Pass
 Warmup Convergence Information,DU_BT=SPACE FUNCTION_ST=DWELLING UNITS GENERAL_FL=BUILDING STORY 3_SCHG 5,RunPeriod: RUN PERIOD 1,0.3186706202,0.5049050182,Pass,Pass,1.6700313980,4.7497347834,Pass,Pass
 Warmup Convergence Information,DU_BT=SPACE FUNCTION_ST=DWELLING UNITS GENERAL_FL=BUILDING STORY 3_SCHG 6,RunPeriod: RUN PERIOD 1,0.3088407671,0.4944433685,Pass,Pass,2.5358340130,8.3765396680,Pass,Pass
 Warmup Convergence Information,DU_BT=SPACE FUNCTION_ST=DWELLING UNITS GENERAL_FL=BUILDING STORY 3_SCHG 7,RunPeriod: RUN PERIOD 1,0.3091102411,0.4941896716,Pass,Pass,2.7370396253,9.6020029362,Pass,Pass
 Warmup Convergence Information,DU_BT=SPACE FUNCTION_ST=DWELLING UNITS GENERAL_FL=BUILDING STORY 4_SCHG,RunPeriod: RUN PERIOD 1,0.3156604706,0.5132117829,Pass,Pass,0.7452320165,1.9386418387,Pass,Pass
 Warmup Convergence Information,DU_BT=SPACE FUNCTION_ST=DWELLING UNITS GENERAL_FL=BUILDING STORY 4_SCHG 1,RunPeriod: RUN PERIOD 1,0.3193073826,0.5060094355,Pass,Pass,1.0722970111,2.3446544187,Pass,Pass
 Warmup Convergence Information,DU_BT=SPACE FUNCTION_ST=DWELLING UNITS GENERAL_FL=BUILDING STORY 4_SCHG 2,RunPeriod: RUN PERIOD 1,0.3167330894,0.5146981742,Pass,Pass,0.5922085345,1.2715306798,Pass,Pass
 Warmup Convergence Information,DU_BT=SPACE FUNCTION_ST=DWELLING UNITS GENERAL_FL=BUILDING STORY 4_SCHG 3,RunPeriod: RUN PERIOD 1,0.3187726393,0.5213293032,Pass,Pass,143.6467422461,686.9054655459,Pass,Pass
 Warmup Convergence Information,DU_BT=SPACE FUNCTION_ST=DWELLING UNITS GENERAL_FL=BUILDING STORY 4_SCHG 4,RunPeriod: RUN PERIOD 1,0.3276006941,0.5150511979,Pass,Pass,0.7066330939,1.3400808554,Pass,Pass
 Warmup Convergence Information,DU_BT=SPACE FUNCTION_ST=DWELLING UNITS GENERAL_FL=BUILDING STORY 4_SCHG 5,RunPeriod: RUN PERIOD 1,0.3078686463,0.4949063509,Pass,Pass,2.6214187015,7.5510158005,Pass,Pass
 Warmup Convergence Information,DU_BT=SPACE FUNCTION_ST=DWELLING UNITS GENERAL_FL=BUILDING STORY 4_SCHG 6,RunPeriod: RUN PERIOD 1,0.3143538520,0.5150550979,Pass,Pass,144.1312234733,689.2924409881,Pass,Pass
 Warmup Convergence Information,DU_BT=SPACE FUNCTION_ST=DWELLING UNITS GENERAL_FL=BUILDING STORY 4_SCHG 7,RunPeriod: RUN PERIOD 1,0.3083063916,0.4946086738,Pass,Pass,2.3746406601,7.4586126105,Pass,Pass
 Warmup Convergence Information,DU_BT=SPACE FUNCTION_ST=DWELLING UNITS GENERAL_FL=BUILDING STORY 5_SCHG,RunPeriod: RUN PERIOD 1,0.3143487480,0.5134569560,Pass,Pass,0.7463241442,1.8927173744,Pass,Pass
 Warmup Convergence Information,DU_BT=SPACE FUNCTION_ST=DWELLING UNITS GENERAL_FL=BUILDING STORY 5_SCHG 1,RunPeriod: RUN PERIOD 1,0.3075574151,0.4952004488,Pass,Pass,3.0928448903,8.9003194621,Pass,Pass
 Warmup Convergence Information,DU_BT=SPACE FUNCTION_ST=DWELLING UNITS GENERAL_FL=BUILDING STORY 5_SCHG 2,RunPeriod: RUN PERIOD 1,0.3193493920,0.5063234782,Pass,Pass,0.9832247941,2.0860973831,Pass,Pass
 Warmup Convergence Information,DU_BT=SPACE FUNCTION_ST=DWELLING UNITS GENERAL_FL=BUILDING STORY 5_SCHG 3,RunPeriod: RUN PERIOD 1,0.3080019625,0.4948530131,Pass,Pass,2.3939410287,7.2551752234,Pass,Pass
 Warmup Convergence Information,DU_BT=SPACE FUNCTION_ST=DWELLING UNITS GENERAL_FL=BUILDING STORY 5_SCHG 4,RunPeriod: RUN PERIOD 1,0.3173088793,0.5204892298,Pass,Pass,37.3489566975,177.1715875398,Pass,Pass
 Warmup Convergence Information,DU_BT=SPACE FUNCTION_ST=DWELLING UNITS GENERAL_FL=BUILDING STORY 5_SCHG 5,RunPeriod: RUN PERIOD 1,0.3146776202,0.5150600021,Pass,Pass,14.8950446745,69.5250024179,Pass,Pass
 Warmup Convergence Information,DU_BT=SPACE FUNCTION_ST=DWELLING UNITS GENERAL_FL=BUILDING STORY 5_SCHG 6,RunPeriod: RUN PERIOD 1,0.3276442630,0.5153106447,Pass,Pass,0.7077333088,1.3520160224,Pass,Pass
 Warmup Convergence Information,DU_BT=SPACE FUNCTION_ST=DWELLING UNITS GENERAL_FL=BUILDING STORY 5_SCHG 7,RunPeriod: RUN PERIOD 1,0.3165334890,0.5151509142,Pass,Pass,0.5923285954,1.2678070152,Pass,Pass
 Warmup Convergence Information,DU_BT=SPACE FUNCTION_ST=DWELLING UNITS GENERAL_FL=BUILDING STORY 6_SCHG,RunPeriod: RUN PERIOD 1,0.3276333899,0.5154845328,Pass,Pass,0.7095806393,1.3547141204,Pass,Pass
 Warmup Convergence Information,DU_BT=SPACE FUNCTION_ST=DWELLING UNITS GENERAL_FL=BUILDING STORY 6_SCHG 1,RunPeriod: RUN PERIOD 1,0.3079542007,0.4950511435,Pass,Pass,2.4041920151,7.2158786429,Pass,Pass
 Warmup Convergence Information,DU_BT=SPACE FUNCTION_ST=DWELLING UNITS GENERAL_FL=BUILDING STORY 6_SCHG 2,RunPeriod: RUN PERIOD 1,0.3193030150,0.5064557099,Pass,Pass,0.9742491174,2.0625743286,Pass,Pass
 Warmup Convergence Information,DU_BT=SPACE FUNCTION_ST=DWELLING UNITS GENERAL_FL=BUILDING STORY 6_SCHG 3,RunPeriod: RUN PERIOD 1,0.3075080421,0.4954186565,Pass,Pass,3.3462683643,9.8167347539,Pass,Pass
 Warmup Convergence Information,DU_BT=SPACE FUNCTION_ST=DWELLING UNITS GENERAL_FL=BUILDING STORY 6_SCHG 4,RunPeriod: RUN PERIOD 1,0.3141877449,0.5138481658,Pass,Pass,0.7477083586,1.8926818644,Pass,Pass
 Warmup Convergence Information,DU_BT=SPACE FUNCTION_ST=DWELLING UNITS GENERAL_FL=BUILDING STORY 6_SCHG 5,RunPeriod: RUN PERIOD 1,0.3166035130,0.5155226889,Pass,Pass,0.5912992995,1.2659807920,Pass,Pass
 Warmup Convergence Information,DU_BT=SPACE FUNCTION_ST=DWELLING UNITS GENERAL_FL=BUILDING STORY 6_SCHG 6,RunPeriod: RUN PERIOD 1,0.3143888036,0.5136174872,Pass,Pass,12.0574267495,55.9182109574,Pass,Pass
 Warmup Convergence Information,DU_BT=SPACE FUNCTION_ST=DWELLING UNITS GENERAL_FL=BUILDING STORY 6_SCHG 7,RunPeriod: RUN PERIOD 1,0.3152373385,0.5172020102,Pass,Pass,24.5056923103,115.5884735452,Pass,Pass
 Warmup Convergence Information,DU_BT=SPACE FUNCTION_ST=DWELLING UNITS GENERAL_FL=BUILDING STORY 7_SCHG,RunPeriod: RUN PERIOD 1,0.3078398583,0.4952595907,Pass,Pass,2.4183745669,7.1804439953,Pass,Pass
 Warmup Convergence Information,DU_BT=SPACE FUNCTION_ST=DWELLING UNITS GENERAL_FL=BUILDING STORY 7_SCHG 1,RunPeriod: RUN PERIOD 1,0.3276243154,0.5156773375,Pass,Pass,0.7110151934,1.3623170495,Pass,Pass
 Warmup Convergence Information,DU_BT=SPACE FUNCTION_ST=DWELLING UNITS GENERAL_FL=BUILDING STORY 7_SCHG 2,RunPeriod: RUN PERIOD 1,0.3142478781,0.5126026833,Pass,Pass,9.2206120104,42.3168882617,Pass,Pass
 Warmup Convergence Information,DU_BT=SPACE FUNCTION_ST=DWELLING UNITS GENERAL_FL=BUILDING STORY 7_SCHG 3,RunPeriod: RUN PERIOD 1,0.3193041244,0.5066765006,Pass,Pass,0.9482627480,2.0009692836,Pass,Pass
 Warmup Convergence Information,DU_BT=SPACE FUNCTION_ST=DWELLING UNITS GENERAL_FL=BUILDING STORY 7_SCHG 4,RunPeriod: RUN PERIOD 1,0.3165508828,0.5158981258,Pass,Pass,0.5914938112,1.2648336386,Pass,Pass
 Warmup Convergence Information,DU_BT=SPACE FUNCTION_ST=DWELLING UNITS GENERAL_FL=BUILDING STORY 7_SCHG 5,RunPeriod: RUN PERIOD 1,0.3140598093,0.5142742527,Pass,Pass,0.7486838665,1.8890550263,Pass,Pass
 Warmup Convergence Information,DU_BT=SPACE FUNCTION_ST=DWELLING UNITS GENERAL_FL=BUILDING STORY 7_SCHG 6,RunPeriod: RUN PERIOD 1,0.3073934253,0.4956598968,Pass,Pass,3.7204046722,11.2978365381,Pass,Pass
 Warmup Convergence Information,DU_BT=SPACE FUNCTION_ST=DWELLING UNITS GENERAL_FL=BUILDING STORY 7_SCHG 7,RunPeriod: RUN PERIOD 1,0.3133506511,0.5125915720,Pass,Pass,16.4510894214,76.9674967659,Pass,Pass
 Warmup Convergence Information,DU_BT=SPACE FUNCTION_ST=DWELLING UNITS GENERAL_FL=BUILDING STORY 8_SCHG,RunPeriod: RUN PERIOD 1,0.3138550563,0.5109059907,Pass,Pass,6.0712024939,27.1088124409,Pass,Pass
 Warmup Convergence Information,DU_BT=SPACE FUNCTION_ST=DWELLING UNITS GENERAL_FL=BUILDING STORY 8_SCHG 1,RunPeriod: RUN PERIOD 1,0.3278337068,0.5154997820,Pass,Pass,0.7126832068,1.3940708751,Pass,Pass
 Warmup Convergence Information,DU_BT=SPACE FUNCTION_ST=DWELLING UNITS GENERAL_FL=BUILDING STORY 8_SCHG 2,RunPeriod: RUN PERIOD 1,0.3152428597,0.5141562587,Pass,Pass,4.3042770350,18.6693016125,Pass,Pass
 Warmup Convergence Information,DU_BT=SPACE FUNCTION_ST=DWELLING UNITS GENERAL_FL=BUILDING STORY 8_SCHG 3,RunPeriod: RUN PERIOD 1,0.3069457749,0.4959242129,Pass,Pass,2.2936603053,6.4370463240,Pass,Pass
 Warmup Convergence Information,DU_BT=SPACE FUNCTION_ST=DWELLING UNITS GENERAL_FL=BUILDING STORY 8_SCHG 4,RunPeriod: RUN PERIOD 1,0.3193960482,0.5066470037,Pass,Pass,0.8676566641,1.8662369271,Pass,Pass
 Warmup Convergence Information,DU_BT=SPACE FUNCTION_ST=DWELLING UNITS GENERAL_FL=BUILDING STORY 8_SCHG 5,RunPeriod: RUN PERIOD 1,0.3129555322,0.5151640956,Pass,Pass,0.7451975819,1.8685721373,Pass,Pass
 Warmup Convergence Information,DU_BT=SPACE FUNCTION_ST=DWELLING UNITS GENERAL_FL=BUILDING STORY 8_SCHG 6,RunPeriod: RUN PERIOD 1,0.3158108132,0.5162904525,Pass,Pass,0.5870793518,1.2611377815,Pass,Pass
 Warmup Convergence Information,DU_BT=SPACE FUNCTION_ST=DWELLING UNITS GENERAL_FL=BUILDING STORY 8_SCHG 7,RunPeriod: RUN PERIOD 1,0.3073891114,0.4954900771,Pass,Pass,2.0718453660,6.2372765282,Pass,Pass
 Warmup Convergence Information,DU_BT=SPACE FUNCTION_ST=DWELLING UNITS GENERAL_FL=BUILDING STORY 9_SCHG,RunPeriod: RUN PERIOD 1,0.3141839999,0.4997524165,Pass,Pass,1.3480902486,3.6396941645,Pass,Pass
 Warmup Convergence Information,DU_BT=SPACE FUNCTION_ST=DWELLING UNITS GENERAL_FL=BUILDING STORY 9_SCHG 1,RunPeriod: RUN PERIOD 1,0.3345879560,0.5286028511,Pass,Pass,0.5908653713,0.9383289130,Pass,Pass
 Warmup Convergence Information,DU_BT=SPACE FUNCTION_ST=DWELLING UNITS GENERAL_FL=BUILDING STORY 9_SCHG 2,RunPeriod: RUN PERIOD 1,0.3212250999,0.5105246197,Pass,Pass,1.4379297205,4.2249333046,Pass,Pass
 Warmup Convergence Information,DU_BT=SPACE FUNCTION_ST=DWELLING UNITS GENERAL_FL=BUILDING STORY 9_SCHG 3,RunPeriod: RUN PERIOD 1,0.3323286597,0.5234795136,Pass,Pass,0.8432759135,1.7820590445,Pass,Pass
 Warmup Convergence Information,DU_BT=SPACE FUNCTION_ST=DWELLING UNITS GENERAL_FL=BUILDING STORY 9_SCHG 4,RunPeriod: RUN PERIOD 1,0.3455307483,0.5353360299,Pass,Pass,0.5467984954,0.7957602781,Pass,Pass
 Warmup Convergence Information,DU_BT=SPACE FUNCTION_ST=DWELLING UNITS GENERAL_FL=BUILDING STORY 9_SCHG 5,RunPeriod: RUN PERIOD 1,0.3204259240,0.5114763757,Pass,Pass,1.3787726354,4.0001390809,Pass,Pass
 Warmup Convergence Information,DU_BT=SPACE FUNCTION_ST=DWELLING UNITS GENERAL_FL=BUILDING STORY 9_SCHG 6,RunPeriod: RUN PERIOD 1,0.3145372499,0.5009995251,Pass,Pass,1.3385987953,3.5716516510,Pass,Pass
 Warmup Convergence Information,DU_BT=SPACE FUNCTION_ST=DWELLING UNITS GENERAL_FL=BUILDING STORY 9_SCHG 7,RunPeriod: RUN PERIOD 1,0.3307468707,0.5300101123,Pass,Pass,2.0371998969,7.3097774453,Pass,Pass
 Warmup Convergence Information,WILD_ST=CORRIDOR/TRANSITION AREA OTHER-SCH-G_FL=BUILDING STORY 10_SCH=G,RunPeriod: RUN PERIOD 1,0.3333685821,0.5332334628,Pass,Pass,0.2079196226,0.2316833702,Pass,Pass
 Warmup Convergence Information,WILD_ST=CORRIDOR/TRANSITION AREA OTHER-SCH-G_FL=BUILDING STORY 1_SCH=G,RunPeriod: RUN PERIOD 1,0.2419949027,0.3229007338,Pass,Pass,0.9506712333,2.7889872710,Pass,Pass
 Warmup Convergence Information,WILD_ST=CORRIDOR/TRANSITION AREA OTHER-SCH-G_FL=BUILDING STORY 2_SCH=G,RunPeriod: RUN PERIOD 1,0.2315620770,0.3136613221,Pass,Pass,1.6777218374,4.5052263736,Pass,Pass
 Warmup Convergence Information,WILD_ST=CORRIDOR/TRANSITION AREA OTHER-SCH-G_FL=BUILDING STORY 3_SCH=G,RunPeriod: RUN PERIOD 1,0.2307195482,0.3139351105,Pass,Pass,3.8945027087,11.4906994269,Pass,Pass
 Warmup Convergence Information,WILD_ST=CORRIDOR/TRANSITION AREA OTHER-SCH-G_FL=BUILDING STORY 4_SCH=G,RunPeriod: RUN PERIOD 1,0.2303177835,0.3136521903,Pass,Pass,2.9298519694,6.9556597721,Pass,Pass
 Warmup Convergence Information,WILD_ST=CORRIDOR/TRANSITION AREA OTHER-SCH-G_FL=BUILDING STORY 5_SCH=G,RunPeriod: RUN PERIOD 1,0.2302753621,0.3134911662,Pass,Pass,4.2005227026,10.5516620027,Pass,Pass
 Warmup Convergence Information,WILD_ST=CORRIDOR/TRANSITION AREA OTHER-SCH-G_FL=BUILDING STORY 6_SCH=G,RunPeriod: RUN PERIOD 1,0.2303051284,0.3134579504,Pass,Pass,229.7886516421,1090.4035878824,Pass,Pass
 Warmup Convergence Information,WILD_ST=CORRIDOR/TRANSITION AREA OTHER-SCH-G_FL=BUILDING STORY 7_SCH=G,RunPeriod: RUN PERIOD 1,0.2303002553,0.3133795389,Pass,Pass,3.4175943857,7.9935028122,Pass,Pass
 Warmup Convergence Information,WILD_ST=CORRIDOR/TRANSITION AREA OTHER-SCH-G_FL=BUILDING STORY 8_SCH=G,RunPeriod: RUN PERIOD 1,0.2296948507,0.3123756169,Pass,Pass,1.8452756056,5.7425794405,Pass,Pass
 Warmup Convergence Information,WILD_ST=CORRIDOR/TRANSITION AREA OTHER-SCH-G_FL=BUILDING STORY 9_SCH=G,RunPeriod: RUN PERIOD 1,0.2381653210,0.3146998789,Pass,Pass,0.8645125356,2.1321520973,Pass,Pass
! <Program Control Information:Threads/Parallel Sims>, Threading Supported,Maximum Number of Threads, Env Set Threads (OMP_NUM_THREADS), EP Env Set Threads (EP_OMP_NUM_THREADS), IDF Set Threads, Number of Threads Used (Interior Radiant Exchange), Number Nominal Surfaces, Number Parallel Sims
Program Control:Threads/Parallel Sims, No,1, N/A, N/A, N/A, N/A, N/A, N/A
End of Data
