Program Version,EnergyPlus, Version 8.9.0-eba93e8e1b, YMD=2018.11.01 15:58
! <Version>, Version ID
 Version, 8.9
! <Timesteps per Hour>, #TimeSteps, Minutes per TimeStep {minutes}
 Timesteps per Hour,  6, 10
! <System Convergence Limits>, Minimum System TimeStep {minutes}, Max HVAC Iterations, Minimum Plant Iterations, Maximum Plant Iterations
 System Convergence Limits, 1, 20, 2, 8
! <Simulation Control>, Do Zone Sizing, Do System Sizing, Do Plant Sizing, Do Design Days, Do Weather Simulation, Do HVAC Sizing Simulation
 Simulation Control, Yes, Yes, Yes, Yes, No, No
! <Output Reporting Tolerances>, Tolerance for Time Heating Setpoint Not Met, Tolerance for Zone Cooling Setpoint Not Met Time
 Output Reporting Tolerances, 1.000, 1.000, 
! <Site:GroundTemperature:BuildingSurface>,Jan{C},Feb{C},Mar{C},Apr{C},May{C},Jun{C},Jul{C},Aug{C},Sep{C},Oct{C},Nov{C},Dec{C}
 Site:GroundTemperature:BuildingSurface,  18.00,  18.00,  18.00,  18.00,  18.00,  18.00,  18.00,  18.00,  18.00,  18.00,  18.00,  18.00
! <Site:GroundTemperature:FCfactorMethod>,Jan{C},Feb{C},Mar{C},Apr{C},May{C},Jun{C},Jul{C},Aug{C},Sep{C},Oct{C},Nov{C},Dec{C}
 Site:GroundTemperature:FCfactorMethod, -21.09, -22.83, -19.75, -14.93,  -2.32,   7.41,  13.97,  15.97,  12.57,   5.01,  -5.08, -14.45
! <Site:GroundTemperature:Shallow>,Jan{C},Feb{C},Mar{C},Apr{C},May{C},Jun{C},Jul{C},Aug{C},Sep{C},Oct{C},Nov{C},Dec{C}
 Site:GroundTemperature:Shallow,  13.00,  13.00,  13.00,  13.00,  13.00,  13.00,  13.00,  13.00,  13.00,  13.00,  13.00,  13.00
! <Site:GroundTemperature:Deep>,Jan{C},Feb{C},Mar{C},Apr{C},May{C},Jun{C},Jul{C},Aug{C},Sep{C},Oct{C},Nov{C},Dec{C}
 Site:GroundTemperature:Deep,  16.00,  16.00,  16.00,  16.00,  16.00,  16.00,  16.00,  16.00,  16.00,  16.00,  16.00,  16.00
! <Site:GroundReflectance>,Jan{dimensionless},Feb{dimensionless},Mar{dimensionless},Apr{dimensionless},May{dimensionless},Jun{dimensionless},Jul{dimensionless},Aug{dimensionless},Sep{dimensionless},Oct{dimensionless},Nov{dimensionless},Dec{dimensionless}
 Site:GroundReflectance,  0.20,  0.20,  0.20,  0.20,  0.20,  0.20,  0.20,  0.20,  0.20,  0.20,  0.20,  0.20
! <Site:GroundReflectance:SnowModifier>, Normal, Daylighting {dimensionless}
 Site:GroundReflectance:SnowModifier,   1.000,   1.000
! <Site:GroundReflectance:Snow>,Jan{dimensionless},Feb{dimensionless},Mar{dimensionless},Apr{dimensionless},May{dimensionless},Jun{dimensionless},Jul{dimensionless},Aug{dimensionless},Sep{dimensionless},Oct{dimensionless},Nov{dimensionless},Dec{dimensionless}
 Site:GroundReflectance:Snow,  0.20,  0.20,  0.20,  0.20,  0.20,  0.20,  0.20,  0.20,  0.20,  0.20,  0.20,  0.20
! <Site:GroundReflectance:Snow:Daylighting>,Jan{dimensionless},Feb{dimensionless},Mar{dimensionless},Apr{dimensionless},May{dimensionless},Jun{dimensionless},Jul{dimensionless},Aug{dimensionless},Sep{dimensionless},Oct{dimensionless},Nov{dimensionless},Dec{dimensionless}
 Site:GroundReflectance:Snow:Daylighting,  0.20,  0.20,  0.20,  0.20,  0.20,  0.20,  0.20,  0.20,  0.20,  0.20,  0.20,  0.20
! <Environment:Weather Station>,Wind Sensor Height Above Ground {m},Wind Speed Profile Exponent {},Wind Speed Profile Boundary Layer Thickness {m},Air Temperature Sensor Height Above Ground {m},Wind Speed Modifier Coefficient-Internal,Temperature Modifier Coefficient-Internal
Environment:Weather Station,10.000,0.140,270.000,1.500,1.586,9.750E-003
! <Site:Location>, Location Name, Latitude {N+/S- Deg}, Longitude {E+/W- Deg},  Time Zone Number {GMT+/-}, Elevation {m},  Standard Pressure at Elevation {Pa}, Standard RhoAir at Elevation
Site:Location,Yellowknife AP NT CAN CWEC2016 WMO#=719360,62.46,-114.44,-7.00,205.70,98878,1.1752
! <Building Information>, Building Name,North Axis {deg},Terrain,  Loads Convergence Tolerance Value,Temperature Convergence Tolerance Value,  Solar Distribution,Maximum Number of Warmup Days,Minimum Number of Warmup Days
 Building Information,SmallOffice-CAN_NT_Yellowknife.AP.719360_CWEC2016.epw created: 2018-11-01 15:55:19 +0000,0.000,City,4.00000E-002,0.20000,FullInteriorAndExterior,25,6
! <Inside Convection Algorithm>, Algorithm {Simple | TARP | CeilingDiffuser | AdaptiveConvectionAlgorithm}
Inside Convection Algorithm,TARP
! <Outside Convection Algorithm>, Algorithm {SimpleCombined | TARP | MoWitt | DOE-2 | AdaptiveConvectionAlgorithm}
Outside Convection Algorithm,TARP
! <Sky Radiance Distribution>, Value {Anisotropic}
Sky Radiance Distribution,Anisotropic
! <Zone Air Solution Algorithm>, Value {ThirdOrderBackwardDifference | AnalyticalSolution | EulerMethod}
 Zone Air Solution Algorithm, ThirdOrderBackwardDifference
! <Zone Air Carbon Dioxide Balance Simulation>, Simulation {Yes/No}, Carbon Dioxide Concentration
 Zone Air Carbon Dioxide Balance Simulation, No,N/A
! <Zone Air Generic Contaminant Balance Simulation>, Simulation {Yes/No}, Generic Contaminant Concentration
 Zone Air Generic Contaminant Balance Simulation, No,N/A
! <Zone Air Mass Flow Balance Simulation>, Enforce Mass Balance, Adjust Zone Mixing, Adjust Zone Infiltration {AddInfiltration | AdjustInfiltration | None}, Infiltration Zones {MixingSourceZonesOnly | AllZones}
 Zone Air Mass Flow Balance Simulation, No,N/A,N/A,N/A
! <HVACSystemRootFindingAlgorithm>, Value {RegulaFalsi | Bisection | BisectionThenRegulaFalsi | RegulaFalsiThenBisection}
 HVACSystemRootFindingAlgorithm, RegulaFalsi
! <Environment:Site Atmospheric Variation>,Wind Speed Profile Exponent {},Wind Speed Profile Boundary Layer Thickness {m},Air Temperature Gradient Coefficient {K/m}
Environment:Site Atmospheric Variation,0.330,460.000,6.500000E-003
! <Surface Geometry>,Starting Corner,Vertex Input Direction,Coordinate System,Daylight Reference Point Coordinate System,Rectangular (Simple) Surface Coordinate System
 Surface Geometry,UpperLeftCorner,Counterclockwise,RelativeCoordinateSystem,RelativeCoordinateSystem,RelativeToZoneOrigin
! <Surface Heat Transfer Algorithm>, Value {CTF - ConductionTransferFunction | EMPD - MoisturePenetrationDepthConductionTransferFunction | CondFD - ConductionFiniteDifference | HAMT - CombinedHeatAndMoistureFiniteElement} - Description,Inside Surface Max Temperature Limit{C}, Surface Convection Coefficient Lower Limit {W/m2-K}, Surface Convection Coefficient Upper Limit {W/m2-K}
Surface Heat Transfer Algorithm, CTF - ConductionTransferFunction,200,0.10,1000.0
! <Shading Summary>, Number of Fixed Detached Shades, Number of Building Detached Shades, Number of Attached Shades
 Shading Summary,0,0,0
! <Zone Summary>, Number of Zones, Number of Zone Surfaces, Number of SubSurfaces
 Zone Summary,6,64,21
! <Zone Information>,Zone Name,North Axis {deg},Origin X-Coordinate {m},Origin Y-Coordinate {m},Origin Z-Coordinate {m},Centroid X-Coordinate {m},Centroid Y-Coordinate {m},Centroid Z-Coordinate {m},Type,Zone Multiplier,Zone List Multiplier,Minimum X {m},Maximum X {m},Minimum Y {m},Maximum Y {m},Minimum Z {m},Maximum Z {m},Ceiling Height {m},Volume {m3},Zone Inside Convection Algorithm {Simple-Detailed-CeilingDiffuser-TrombeWall},Zone Outside Convection Algorithm {Simple-Detailed-Tarp-MoWitt-DOE-2-BLAST}, Floor Area {m2},Exterior Gross Wall Area {m2},Exterior Net Wall Area {m2},Exterior Window Area {m2}, Number of Surfaces, Number of SubSurfaces, Number of Shading SubSurfaces,  Part of Total Building Area
 Zone Information, SP-ATTIC SYS-0 FLR-2 SCH-- UNDEFINED - HPLCMT-CORE ZN,0.0,0.00,0.00,0.00,13.85,9.23,3.70,1,1,1,-0.60,28.29,-0.60,19.06,3.05,6.33,1.64,720.19,TARP,TARP,567.98,0.00,0.00,0.00,13,0,0,No
 Zone Information, SP-CORE_ZN SYS-3 FLR-1 SCH-A HPLCMT-CORE ZN,0.0,0.00,0.00,0.00,13.85,9.23,1.53,1,1,1,5.00,22.69,5.00,13.46,0.00,3.05,3.05,456.46,TARP,TARP,149.66,0.00,0.00,0.00,6,0,0,Yes
 Zone Information, SP-PERIMETER_ZN_1 SYS-3 FLR-1 SCH-A HPLCMT-SOUTH ZN,0.0,0.00,0.00,0.00,13.85,2.21,1.53,1,1,1,0.00,27.69,0.00,5.00,0.00,3.05,3.05,346.02,TARP,TARP,113.45,84.45,64.98,15.79,6,7,0,Yes
 Zone Information, SP-PERIMETER_ZN_2 SYS-3 FLR-1 SCH-A HPLCMT-EAST ZN,0.0,0.00,0.00,0.00,25.64,9.23,1.53,1,1,1,22.69,27.69,0.00,18.46,0.00,3.05,3.05,205.27,TARP,TARP,67.30,56.30,45.78,10.52,6,4,0,Yes
 Zone Information, SP-PERIMETER_ZN_3 SYS-3 FLR-1 SCH-A HPLCMT-NORTH ZN,0.0,0.00,0.00,0.00,13.85,16.25,1.53,1,1,1,0.00,27.69,13.46,18.46,0.00,3.05,3.05,346.02,TARP,TARP,113.45,84.45,68.67,15.79,6,6,0,Yes
 Zone Information, SP-PERIMETER_ZN_4 SYS-3 FLR-1 SCH-A HPLCMT-WEST ZN,0.0,0.00,0.00,0.00,2.05,9.23,1.53,1,1,1,0.00,5.00,0.00,18.46,0.00,3.05,3.05,205.27,TARP,TARP,67.30,56.30,45.78,10.52,6,4,0,Yes
! <Zone Internal Gains Nominal>,Zone Name, Floor Area {m2},# Occupants,Area per Occupant {m2/person},Occupant per Area {person/m2},Interior Lighting {W/m2},Electric Load {W/m2},Gas Load {W/m2},Other Load {W/m2},Hot Water Eq {W/m2},Steam Equipment {W/m2},Sum Loads per Area {W/m2},Outdoor Controlled Baseboard Heat
 Zone Internal Gains Nominal, SP-ATTIC SYS-0 FLR-2 SCH-- UNDEFINED - HPLCMT-CORE ZN,567.98,0.0,N/A,0.000,0.000,0.000,0.000,0.000,0.000,0.000,0.000,No
 Zone Internal Gains Nominal, SP-CORE_ZN SYS-3 FLR-1 SCH-A HPLCMT-CORE ZN,149.66,7.5,19.993,5.002E-002,12.004,7.503,0.000,0.000,0.000,0.000,19.507,No
 Zone Internal Gains Nominal, SP-PERIMETER_ZN_1 SYS-3 FLR-1 SCH-A HPLCMT-SOUTH ZN,113.45,5.7,19.993,5.002E-002,12.004,7.503,0.000,0.000,0.000,0.000,19.507,No
 Zone Internal Gains Nominal, SP-PERIMETER_ZN_2 SYS-3 FLR-1 SCH-A HPLCMT-EAST ZN,67.30,3.4,19.993,5.002E-002,12.004,7.503,0.000,0.000,0.000,0.000,19.507,No
 Zone Internal Gains Nominal, SP-PERIMETER_ZN_3 SYS-3 FLR-1 SCH-A HPLCMT-NORTH ZN,113.45,5.7,19.993,5.002E-002,12.004,7.503,0.000,0.000,0.000,0.000,19.507,No
 Zone Internal Gains Nominal, SP-PERIMETER_ZN_4 SYS-3 FLR-1 SCH-A HPLCMT-WEST ZN,67.30,3.4,19.993,5.002E-002,12.004,7.503,0.000,0.000,0.000,0.000,19.507,No
! <People Internal Gains Nominal>,Name,Schedule Name,Zone Name,Zone Floor Area {m2},# Zone Occupants,Number of People {},People/Floor Area {person/m2},Floor Area per person {m2/person},Fraction Radiant,Fraction Convected,Sensible Fraction Calculation,Activity level,ASHRAE 55 Warnings,Carbon Dioxide Generation Rate,Nominal Minimum Number of People,Nominal Maximum Number of People
 People Internal Gains Nominal, SP-CORE_ZN SYS-3 FLR-1 SCH-A HPLCMT-CORE ZN SPACE FUNCTION OFFICE ENCLOSED > 25 M2 PEOPLE,NECB-A-OCCUPANCY,SP-CORE_ZN SYS-3 FLR-1 SCH-A HPLCMT-CORE ZN,149.66,7.5,7.5,5.002E-002,19.993,0.300,0.700,AutoCalculate,NECB-ACTIVITY,No,3.8200E-008,0,7
 People Internal Gains Nominal, SP-PERIMETER_ZN_1 SYS-3 FLR-1 SCH-A HPLCMT-SOUTH ZN SPACE FUNCTION OFFICE ENCLOSED > 25 M2 PEOPLE,NECB-A-OCCUPANCY,SP-PERIMETER_ZN_1 SYS-3 FLR-1 SCH-A HPLCMT-SOUTH ZN,113.45,5.7,5.7,5.002E-002,19.993,0.300,0.700,AutoCalculate,NECB-ACTIVITY,No,3.8200E-008,0,5
 People Internal Gains Nominal, SP-PERIMETER_ZN_2 SYS-3 FLR-1 SCH-A HPLCMT-EAST ZN SPACE FUNCTION OFFICE ENCLOSED > 25 M2 PEOPLE,NECB-A-OCCUPANCY,SP-PERIMETER_ZN_2 SYS-3 FLR-1 SCH-A HPLCMT-EAST ZN,67.30,3.4,3.4,5.002E-002,19.993,0.300,0.700,AutoCalculate,NECB-ACTIVITY,No,3.8200E-008,0,3
 People Internal Gains Nominal, SP-PERIMETER_ZN_3 SYS-3 FLR-1 SCH-A HPLCMT-NORTH ZN SPACE FUNCTION OFFICE ENCLOSED > 25 M2 PEOPLE,NECB-A-OCCUPANCY,SP-PERIMETER_ZN_3 SYS-3 FLR-1 SCH-A HPLCMT-NORTH ZN,113.45,5.7,5.7,5.002E-002,19.993,0.300,0.700,AutoCalculate,NECB-ACTIVITY,No,3.8200E-008,0,5
 People Internal Gains Nominal, SP-PERIMETER_ZN_4 SYS-3 FLR-1 SCH-A HPLCMT-WEST ZN SPACE FUNCTION OFFICE ENCLOSED > 25 M2 PEOPLE,NECB-A-OCCUPANCY,SP-PERIMETER_ZN_4 SYS-3 FLR-1 SCH-A HPLCMT-WEST ZN,67.30,3.4,3.4,5.002E-002,19.993,0.300,0.700,AutoCalculate,NECB-ACTIVITY,No,3.8200E-008,0,3
! <Lights Internal Gains Nominal>,Name,Schedule Name,Zone Name,Zone Floor Area {m2},# Zone Occupants,Lighting Level {W},Lights/Floor Area {W/m2},Lights per person {W/person},Fraction Return Air,Fraction Radiant,Fraction Short Wave,Fraction Convected,Fraction Replaceable,End-Use Category,Nominal Minimum Lighting Level {W},Nominal Maximum Lighting Level {W}
 Lights Internal Gains Nominal, SP-CORE_ZN SYS-3 FLR-1 SCH-A HPLCMT-CORE ZN SPACE FUNCTION OFFICE ENCLOSED > 25 M2 LIGHTS,NECB-A-OCCUPANCY-NECB-A-LIGHTING-0.3-0.1-0.67-LIGHT RULESET,SP-CORE_ZN SYS-3 FLR-1 SCH-A HPLCMT-CORE ZN,149.66,7.5,1796.541,12.004,240.000,0.000,0.500,0.200,0.300,1.000,General,62.789,1616.887
 Lights Internal Gains Nominal, SP-PERIMETER_ZN_1 SYS-3 FLR-1 SCH-A HPLCMT-SOUTH ZN SPACE FUNCTION OFFICE ENCLOSED > 25 M2 LIGHTS,NECB-A-OCCUPANCY-NECB-A-LIGHTING-0.3-0.1-0.67-LIGHT RULESET,SP-PERIMETER_ZN_1 SYS-3 FLR-1 SCH-A HPLCMT-SOUTH ZN,113.45,5.7,1361.895,12.004,240.000,0.000,0.500,0.200,0.300,1.000,General,47.598,1225.705
 Lights Internal Gains Nominal, SP-PERIMETER_ZN_2 SYS-3 FLR-1 SCH-A HPLCMT-EAST ZN SPACE FUNCTION OFFICE ENCLOSED > 25 M2 LIGHTS,NECB-A-OCCUPANCY-NECB-A-LIGHTING-0.3-0.1-0.67-LIGHT RULESET,SP-PERIMETER_ZN_2 SYS-3 FLR-1 SCH-A HPLCMT-EAST ZN,67.30,3.4,807.893,12.004,240.000,0.000,0.500,0.200,0.300,1.000,General,28.236,727.104
 Lights Internal Gains Nominal, SP-PERIMETER_ZN_3 SYS-3 FLR-1 SCH-A HPLCMT-NORTH ZN SPACE FUNCTION OFFICE ENCLOSED > 25 M2 LIGHTS,NECB-A-OCCUPANCY-NECB-A-LIGHTING-0.3-0.1-0.67-LIGHT RULESET,SP-PERIMETER_ZN_3 SYS-3 FLR-1 SCH-A HPLCMT-NORTH ZN,113.45,5.7,1361.895,12.004,240.000,0.000,0.500,0.200,0.300,1.000,General,47.598,1225.705
 Lights Internal Gains Nominal, SP-PERIMETER_ZN_4 SYS-3 FLR-1 SCH-A HPLCMT-WEST ZN SPACE FUNCTION OFFICE ENCLOSED > 25 M2 LIGHTS,NECB-A-OCCUPANCY-NECB-A-LIGHTING-0.3-0.1-0.67-LIGHT RULESET,SP-PERIMETER_ZN_4 SYS-3 FLR-1 SCH-A HPLCMT-WEST ZN,67.30,3.4,807.893,12.004,240.000,0.000,0.500,0.200,0.300,1.000,General,28.236,727.104
! <ElectricEquipment Internal Gains Nominal>,Name,Schedule Name,Zone Name,Zone Floor Area {m2},# Zone Occupants,Equipment Level {W},Equipment/Floor Area {W/m2},Equipment per person {W/person},Fraction Latent,Fraction Radiant,Fraction Lost,Fraction Convected,End-Use SubCategory,Nominal Minimum Equipment Level {W},Nominal Maximum Equipment Level {W}
 ElectricEquipment Internal Gains Nominal, SP-CORE_ZN SYS-3 FLR-1 SCH-A HPLCMT-CORE ZN SPACE FUNCTION OFFICE ENCLOSED > 25 M2 ELEC EQUIP,NECB-A-ELECTRIC-EQUIPMENT,SP-CORE_ZN SYS-3 FLR-1 SCH-A HPLCMT-CORE ZN,149.66,7.5,1122.838,7.503,150.000,0.000,0.500,0.000,0.500,General,224.568,1010.555
 ElectricEquipment Internal Gains Nominal, SP-PERIMETER_ZN_1 SYS-3 FLR-1 SCH-A HPLCMT-SOUTH ZN SPACE FUNCTION OFFICE ENCLOSED > 25 M2 ELEC EQUIP,NECB-A-ELECTRIC-EQUIPMENT,SP-PERIMETER_ZN_1 SYS-3 FLR-1 SCH-A HPLCMT-SOUTH ZN,113.45,5.7,851.184,7.503,150.000,0.000,0.500,0.000,0.500,General,170.237,766.066
 ElectricEquipment Internal Gains Nominal, SP-PERIMETER_ZN_2 SYS-3 FLR-1 SCH-A HPLCMT-EAST ZN SPACE FUNCTION OFFICE ENCLOSED > 25 M2 ELEC EQUIP,NECB-A-ELECTRIC-EQUIPMENT,SP-PERIMETER_ZN_2 SYS-3 FLR-1 SCH-A HPLCMT-EAST ZN,67.30,3.4,504.933,7.503,150.000,0.000,0.500,0.000,0.500,General,100.987,454.440
 ElectricEquipment Internal Gains Nominal, SP-PERIMETER_ZN_3 SYS-3 FLR-1 SCH-A HPLCMT-NORTH ZN SPACE FUNCTION OFFICE ENCLOSED > 25 M2 ELEC EQUIP,NECB-A-ELECTRIC-EQUIPMENT,SP-PERIMETER_ZN_3 SYS-3 FLR-1 SCH-A HPLCMT-NORTH ZN,113.45,5.7,851.184,7.503,150.000,0.000,0.500,0.000,0.500,General,170.237,766.066
 ElectricEquipment Internal Gains Nominal, SP-PERIMETER_ZN_4 SYS-3 FLR-1 SCH-A HPLCMT-WEST ZN SPACE FUNCTION OFFICE ENCLOSED > 25 M2 ELEC EQUIP,NECB-A-ELECTRIC-EQUIPMENT,SP-PERIMETER_ZN_4 SYS-3 FLR-1 SCH-A HPLCMT-WEST ZN,67.30,3.4,504.933,7.503,150.000,0.000,0.500,0.000,0.500,General,100.987,454.440
! <Shadowing/Sun Position Calculations Annual Simulations>, Calculation Method, Value {days}, Allowable Number Figures in Shadow Overlap {}, Polygon Clipping Algorithm, Sky Diffuse Modeling Algorithm, External Shading Calculation Method, Output External Shading Calculation Results, Disable Self-Shading Within Shading Zone Groups, Disable Self-Shading From Shading Zone Groups to Other Zones
Shadowing/Sun Position Calculations Annual Simulations,AverageOverDaysInFrequency,30,15000,SutherlandHodgman,SimpleSkyDiffuseModeling,InternalCalculation,No,No,No
! <Water Heater Information>,Type,Name,Volume {m3},Maximum Capacity {W},Standard Rated Recovery Efficiency, Standard Rated Energy Factor
! <ZoneInfiltration Airflow Stats Nominal>,Name,Schedule Name,Zone Name, Zone Floor Area {m2}, # Zone Occupants,Design Volume Flow Rate {m3/s},Volume Flow Rate/Floor Area {m3/s/m2},Volume Flow Rate/Exterior Surface Area {m3/s/m2},ACH - Air Changes per Hour,Equation A - Constant Term Coefficient {},Equation B - Temperature Term Coefficient {1/C},Equation C - Velocity Term Coefficient {s/m}, Equation D - Velocity Squared Term Coefficient {s2/m2}
 ZoneInfiltration Airflow Stats Nominal, ATTIC INFILTRATION,ALWAYS ON DISCRETE,SP-ATTIC SYS-0 FLR-2 SCH-- UNDEFINED - HPLCMT-CORE ZN,567.98,0.0,0.150,2.635E-004,2.283E-004,0.748,0.000,0.000,0.224,0.000
 ZoneInfiltration Airflow Stats Nominal, PERIMETER_ZN_1 INFILTRATION,ALWAYS ON DISCRETE,SP-PERIMETER_ZN_1 SYS-3 FLR-1 SCH-A HPLCMT-SOUTH ZN,113.45,5.7,2.203E-002,1.942E-004,2.500E-004,0.229,0.000,0.000,0.224,0.000
 ZoneInfiltration Airflow Stats Nominal, PERIMETER_ZN_2 INFILTRATION,ALWAYS ON DISCRETE,SP-PERIMETER_ZN_2 SYS-3 FLR-1 SCH-A HPLCMT-EAST ZN,67.30,3.4,1.408E-002,2.091E-004,2.500E-004,0.247,0.000,0.000,0.224,0.000
 ZoneInfiltration Airflow Stats Nominal, PERIMETER_ZN_3 INFILTRATION,ALWAYS ON DISCRETE,SP-PERIMETER_ZN_3 SYS-3 FLR-1 SCH-A HPLCMT-NORTH ZN,113.45,5.7,2.111E-002,1.861E-004,2.500E-004,0.220,0.000,0.000,0.224,0.000
 ZoneInfiltration Airflow Stats Nominal, PERIMETER_ZN_4 INFILTRATION,ALWAYS ON DISCRETE,SP-PERIMETER_ZN_4 SYS-3 FLR-1 SCH-A HPLCMT-WEST ZN,67.30,3.4,1.408E-002,2.091E-004,2.500E-004,0.247,0.000,0.000,0.224,0.000
! <AirFlow Model>, Simple
 AirFlow Model, Simple
! <RoomAir Model>, Zone Name, Mixing/Mundt/UCSDDV/UCSDCV/UCSDUFI/UCSDUFE/User Defined
RoomAir Model,SP-ATTIC SYS-0 FLR-2 SCH-- UNDEFINED - HPLCMT-CORE ZN,Mixing/Well-Stirred
RoomAir Model,SP-CORE_ZN SYS-3 FLR-1 SCH-A HPLCMT-CORE ZN,Mixing/Well-Stirred
RoomAir Model,SP-PERIMETER_ZN_1 SYS-3 FLR-1 SCH-A HPLCMT-SOUTH ZN,Mixing/Well-Stirred
RoomAir Model,SP-PERIMETER_ZN_2 SYS-3 FLR-1 SCH-A HPLCMT-EAST ZN,Mixing/Well-Stirred
RoomAir Model,SP-PERIMETER_ZN_3 SYS-3 FLR-1 SCH-A HPLCMT-NORTH ZN,Mixing/Well-Stirred
RoomAir Model,SP-PERIMETER_ZN_4 SYS-3 FLR-1 SCH-A HPLCMT-WEST ZN,Mixing/Well-Stirred
! <AirflowNetwork Model:Control>, No Multizone or Distribution/Multizone with Distribution/Multizone without Distribution/Multizone with Distribution only during Fan Operation
AirflowNetwork Model:Control,NoMultizoneOrDistribution
! <Zone Volume Capacitance Multiplier>, Sensible Heat Capacity Multiplier, Moisture Capacity Multiplier, Carbon Dioxide Capacity Multiplier, Generic Contaminant Capacity Multiplier
Zone Volume Capacitance Multiplier,   1.000 ,   1.000,   1.000,   1.000
! <Load Timesteps in Zone Design Calculation Averaging Window>, Value
 Load Timesteps in Zone Design Calculation Averaging Window,    6
! <Heating Sizing Factor Information>, Sizing Factor ID, Value
 Heating Sizing Factor Information, Global,   1.3000    
 Heating Sizing Factor Information, Zone SP-CORE_ZN SYS-3 FLR-1 SCH-A HPLCMT-CORE ZN,   1.3000    
 Heating Sizing Factor Information, Zone SP-PERIMETER_ZN_1 SYS-3 FLR-1 SCH-A HPLCMT-SOUTH ZN,   1.3000    
 Heating Sizing Factor Information, Zone SP-PERIMETER_ZN_2 SYS-3 FLR-1 SCH-A HPLCMT-EAST ZN,   1.3000    
 Heating Sizing Factor Information, Zone SP-PERIMETER_ZN_3 SYS-3 FLR-1 SCH-A HPLCMT-NORTH ZN,   1.3000    
 Heating Sizing Factor Information, Zone SP-PERIMETER_ZN_4 SYS-3 FLR-1 SCH-A HPLCMT-WEST ZN,   1.3000    
! <Cooling Sizing Factor Information>, Sizing Factor ID, Value
 Cooling Sizing Factor Information, Global,   1.1000    
 Cooling Sizing Factor Information, Zone SP-CORE_ZN SYS-3 FLR-1 SCH-A HPLCMT-CORE ZN,   1.1000    
 Cooling Sizing Factor Information, Zone SP-PERIMETER_ZN_1 SYS-3 FLR-1 SCH-A HPLCMT-SOUTH ZN,   1.1000    
 Cooling Sizing Factor Information, Zone SP-PERIMETER_ZN_2 SYS-3 FLR-1 SCH-A HPLCMT-EAST ZN,   1.1000    
 Cooling Sizing Factor Information, Zone SP-PERIMETER_ZN_3 SYS-3 FLR-1 SCH-A HPLCMT-NORTH ZN,   1.1000    
 Cooling Sizing Factor Information, Zone SP-PERIMETER_ZN_4 SYS-3 FLR-1 SCH-A HPLCMT-WEST ZN,   1.1000    
! <Zone Sizing Information>, Zone Name, Load Type, Calc Des Load {W}, User Des Load {W}, Calc Des Air Flow Rate {m3/s}, User Des Air Flow Rate {m3/s}, Design Day Name, Date/Time of Peak, Temperature at Peak {C}, Humidity Ratio at Peak {kgWater/kgDryAir}, Floor Area {m2}, # Occupants, Calc Outdoor Air Flow Rate {m3/s}, Calc DOAS Heat Addition Rate {W}
 Zone Sizing Information, SP-CORE_ZN SYS-3 FLR-1 SCH-A HPLCMT-CORE ZN, Cooling, 3186.39843, 3505.03827, 0.24153, 0.26568, YELLOWKNIFE AP ANN CLG .4% CONDNS DB=>MWB, 7/21 17:00:00, 24.29400, 7.78272E-003, 149.65740, 7.48559, 6.31015E-002, 0.00000
 Zone Sizing Information, SP-CORE_ZN SYS-3 FLR-1 SCH-A HPLCMT-CORE ZN, Heating, 3761.10798, 4889.44037, 0.14727, 0.19145, YELLOWKNIFE AP ANN HTG 99.6% CONDNS DB, 1/21 08:00:00, -40.50000, 7.63571E-005, 149.65740, 7.48559, 6.31015E-002, 0.00000
 Zone Sizing Information, SP-PERIMETER_ZN_1 SYS-3 FLR-1 SCH-A HPLCMT-SOUTH ZN, Cooling, 5321.14074, 5853.25481, 0.40331, 0.44365, YELLOWKNIFE AP ANN CLG .4% CONDNS DB=>MWB, 7/21 13:40:00, 25.26833, 7.78272E-003, 113.45000, 5.67456, 4.78351E-002, 0.00000
 Zone Sizing Information, SP-PERIMETER_ZN_1 SYS-3 FLR-1 SCH-A HPLCMT-SOUTH ZN, Heating, 5025.01710, 6532.52223, 0.19780, 0.25714, YELLOWKNIFE AP ANN HTG 99.6% CONDNS DB, 1/21 08:00:00, -40.50000, 7.63571E-005, 113.45000, 5.67456, 4.78351E-002, 0.00000
 Zone Sizing Information, SP-PERIMETER_ZN_2 SYS-3 FLR-1 SCH-A HPLCMT-EAST ZN, Cooling, 3542.31294, 3896.54423, 0.26849, 0.29534, YELLOWKNIFE AP ANN CLG .4% CONDNS DB=>MWB, 7/21 09:40:00, 21.95033, 7.78273E-003, 67.30000, 3.36622, 2.83764E-002, 0.00000
 Zone Sizing Information, SP-PERIMETER_ZN_2 SYS-3 FLR-1 SCH-A HPLCMT-EAST ZN, Heating, 3120.73966, 4056.96156, 0.12288, 0.15974, YELLOWKNIFE AP ANN HTG 99.6% CONDNS DB, 1/21 08:00:00, -40.50000, 7.63571E-005, 67.30000, 3.36622, 2.83764E-002, 0.00000
 Zone Sizing Information, SP-PERIMETER_ZN_3 SYS-3 FLR-1 SCH-A HPLCMT-NORTH ZN, Cooling, 2838.22240, 3122.04464, 0.21513, 0.23665, YELLOWKNIFE AP ANN CLG .4% CONDNS DB=>MWB, 7/21 17:00:00, 24.29400, 7.78272E-003, 113.45000, 5.67456, 4.78351E-002, 0.00000
 Zone Sizing Information, SP-PERIMETER_ZN_3 SYS-3 FLR-1 SCH-A HPLCMT-NORTH ZN, Heating, 4865.81873, 6325.56434, 0.19149, 0.24893, YELLOWKNIFE AP ANN HTG 99.6% CONDNS DB, 1/21 08:00:00, -40.50000, 7.63571E-005, 113.45000, 5.67456, 4.78351E-002, 0.00000
 Zone Sizing Information, SP-PERIMETER_ZN_4 SYS-3 FLR-1 SCH-A HPLCMT-WEST ZN, Cooling, 3749.56892, 4124.52581, 0.28421, 0.31263, YELLOWKNIFE AP ANN CLG .4% CONDNS DB=>MWB, 7/21 17:40:00, 23.76733, 7.78272E-003, 67.30000, 3.36622, 2.83764E-002, 0.00000
 Zone Sizing Information, SP-PERIMETER_ZN_4 SYS-3 FLR-1 SCH-A HPLCMT-WEST ZN, Heating, 3131.91319, 4071.48714, 0.12332, 0.16032, YELLOWKNIFE AP ANN HTG 99.6% CONDNS DB, 1/21 08:00:00, -40.50000, 7.63571E-005, 67.30000, 3.36622, 2.83764E-002, 0.00000
! <System Sizing Information>, System Name, Load Type, Peak Load Kind, User Design Capacity, Calc Des Air Flow Rate [m3/s], User Des Air Flow Rate [m3/s], Design Day Name, Date/Time of Peak
 System Sizing Information, SP-CORE_ZN SYS-3 FLR-1 SCH-A HPLCMT-CORE ZN NECB SYSTEM 3 PSZ, Cooling, Sensible, 3472.85, 0.26568, 0.26568, YELLOWKNIFE AP ANN CLG .4% CONDNS DB=>MWB, 7/21 05:00:00
 System Sizing Information, SP-CORE_ZN SYS-3 FLR-1 SCH-A HPLCMT-CORE ZN NECB SYSTEM 3 PSZ, Heating, Sensible, 9429.04, 0.19145, 0.19145, YELLOWKNIFE AP ANN HTG 99.6% CONDNS DB, 1/21 08:00:00
 System Sizing Information, SP-PERIMETER_ZN_1 SYS-3 FLR-1 SCH-A HPLCMT-SOUTH ZN NECB SYSTEM 3 PSZ, Cooling, Sensible, 5834.43, 0.44365, 0.44365, YELLOWKNIFE AP ANN CLG .4% CONDNS DB=>MWB, 7/21 05:00:00
 System Sizing Information, SP-PERIMETER_ZN_1 SYS-3 FLR-1 SCH-A HPLCMT-SOUTH ZN NECB SYSTEM 3 PSZ, Heating, Sensible, 9933.27, 0.25714, 0.25714, YELLOWKNIFE AP ANN HTG 99.6% CONDNS DB, 1/21 08:00:00
 System Sizing Information, SP-PERIMETER_ZN_2 SYS-3 FLR-1 SCH-A HPLCMT-EAST ZN NECB SYSTEM 3 PSZ, Cooling, Sensible, 3767.63, 0.29534, 0.29534, YELLOWKNIFE AP ANN CLG .4% CONDNS DB=>MWB, 7/21 05:00:00
 System Sizing Information, SP-PERIMETER_ZN_2 SYS-3 FLR-1 SCH-A HPLCMT-EAST ZN NECB SYSTEM 3 PSZ, Heating, Sensible, 6072.28, 0.15974, 0.15974, YELLOWKNIFE AP ANN HTG 99.6% CONDNS DB, 1/21 08:00:00
 System Sizing Information, SP-PERIMETER_ZN_3 SYS-3 FLR-1 SCH-A HPLCMT-NORTH ZN NECB SYSTEM 3 PSZ, Cooling, Sensible, 3090.44, 0.23665, 0.23665, YELLOWKNIFE AP ANN CLG .4% CONDNS DB=>MWB, 7/21 05:00:00
 System Sizing Information, SP-PERIMETER_ZN_3 SYS-3 FLR-1 SCH-A HPLCMT-NORTH ZN NECB SYSTEM 3 PSZ, Heating, Sensible, 9728.60, 0.24893, 0.24893, YELLOWKNIFE AP ANN HTG 99.6% CONDNS DB, 1/21 08:00:00
 System Sizing Information, SP-PERIMETER_ZN_4 SYS-3 FLR-1 SCH-A HPLCMT-WEST ZN NECB SYSTEM 3 PSZ, Cooling, Sensible, 4052.99, 0.31263, 0.31263, YELLOWKNIFE AP ANN CLG .4% CONDNS DB=>MWB, 7/21 05:00:00
 System Sizing Information, SP-PERIMETER_ZN_4 SYS-3 FLR-1 SCH-A HPLCMT-WEST ZN NECB SYSTEM 3 PSZ, Heating, Sensible, 6086.64, 0.16032, 0.16032, YELLOWKNIFE AP ANN HTG 99.6% CONDNS DB, 1/21 08:00:00
! <Component Sizing Information>, Component Type, Component Name, Input Field Description, Value
 Component Sizing Information, AirTerminal:SingleDuct:Uncontrolled, AIR TERMINAL SINGLE DUCT UNCONTROLLED 5, Design Size Maximum Air Flow Rate [m3/s], 0.26568
 Component Sizing Information, ZoneHVAC:Baseboard:Convective:Water, ZONE HVAC BASEBOARD CONVECTIVE WATER 5, Design Size Maximum Water Flow Rate [m3/s], 7.30278E-005
 Component Sizing Information, ZoneHVAC:Baseboard:Convective:Water, ZONE HVAC BASEBOARD CONVECTIVE WATER 5, Design Size U-Factor Times Area Value [W/K], 148.94777
 Component Sizing Information, AirTerminal:SingleDuct:Uncontrolled, AIR TERMINAL SINGLE DUCT UNCONTROLLED 4, Design Size Maximum Air Flow Rate [m3/s], 0.44365
 Component Sizing Information, ZoneHVAC:Baseboard:Convective:Water, ZONE HVAC BASEBOARD CONVECTIVE WATER 4, Design Size Maximum Water Flow Rate [m3/s], 9.75685E-005
 Component Sizing Information, ZoneHVAC:Baseboard:Convective:Water, ZONE HVAC BASEBOARD CONVECTIVE WATER 4, Design Size U-Factor Times Area Value [W/K], 199.04100
 Component Sizing Information, AirTerminal:SingleDuct:Uncontrolled, AIR TERMINAL SINGLE DUCT UNCONTROLLED 2, Design Size Maximum Air Flow Rate [m3/s], 0.29534
 Component Sizing Information, ZoneHVAC:Baseboard:Convective:Water, ZONE HVAC BASEBOARD CONVECTIVE WATER 2, Design Size Maximum Water Flow Rate [m3/s], 6.05940E-005
 Component Sizing Information, ZoneHVAC:Baseboard:Convective:Water, ZONE HVAC BASEBOARD CONVECTIVE WATER 2, Design Size U-Factor Times Area Value [W/K], 123.61286
 Component Sizing Information, AirTerminal:SingleDuct:Uncontrolled, AIR TERMINAL SINGLE DUCT UNCONTROLLED 1, Design Size Maximum Air Flow Rate [m3/s], 0.24893
 Component Sizing Information, ZoneHVAC:Baseboard:Convective:Water, ZONE HVAC BASEBOARD CONVECTIVE WATER 1, Design Size Maximum Water Flow Rate [m3/s], 9.44774E-005
 Component Sizing Information, ZoneHVAC:Baseboard:Convective:Water, ZONE HVAC BASEBOARD CONVECTIVE WATER 1, Design Size U-Factor Times Area Value [W/K], 192.73518
 Component Sizing Information, AirTerminal:SingleDuct:Uncontrolled, AIR TERMINAL SINGLE DUCT UNCONTROLLED 3, Design Size Maximum Air Flow Rate [m3/s], 0.31263
 Component Sizing Information, ZoneHVAC:Baseboard:Convective:Water, ZONE HVAC BASEBOARD CONVECTIVE WATER 3, Design Size Maximum Water Flow Rate [m3/s], 6.08110E-005
 Component Sizing Information, ZoneHVAC:Baseboard:Convective:Water, ZONE HVAC BASEBOARD CONVECTIVE WATER 3, Design Size U-Factor Times Area Value [W/K], 124.05538
 Component Sizing Information, AirLoopHVAC, SP-CORE_ZN SYS-3 FLR-1 SCH-A HPLCMT-CORE ZN NECB SYSTEM 3 PSZ, Sum of Air Terminal Maximum Heating Flow Rates [m3/s], 0.26568
 Component Sizing Information, AirLoopHVAC, SP-CORE_ZN SYS-3 FLR-1 SCH-A HPLCMT-CORE ZN NECB SYSTEM 3 PSZ, Sum of Air Terminal Minimum Heating Flow Rates [m3/s], 0.26568
 Component Sizing Information, AirLoopHVAC, SP-CORE_ZN SYS-3 FLR-1 SCH-A HPLCMT-CORE ZN NECB SYSTEM 3 PSZ, Sum of Air Terminal Maximum Flow Rates [m3/s], 0.26568
 Component Sizing Information, AirLoopHVAC, SP-CORE_ZN SYS-3 FLR-1 SCH-A HPLCMT-CORE ZN NECB SYSTEM 3 PSZ, Adjusted Heating Design Air Flow Rate [m3/s], 0.26568
 Component Sizing Information, AirLoopHVAC, SP-CORE_ZN SYS-3 FLR-1 SCH-A HPLCMT-CORE ZN NECB SYSTEM 3 PSZ, Adjusted Cooling Design Air Flow Rate [m3/s], 0.26568
 Component Sizing Information, AirLoopHVAC, SP-CORE_ZN SYS-3 FLR-1 SCH-A HPLCMT-CORE ZN NECB SYSTEM 3 PSZ, Adjusted Main Design Air Flow Rate [m3/s], 0.26568
 Component Sizing Information, AirLoopHVAC, SP-CORE_ZN SYS-3 FLR-1 SCH-A HPLCMT-CORE ZN NECB SYSTEM 3 PSZ, User Heating Air Flow Ratio [], 1.00000
 Component Sizing Information, AirLoopHVAC, SP-CORE_ZN SYS-3 FLR-1 SCH-A HPLCMT-CORE ZN NECB SYSTEM 3 PSZ, Calculated Heating Air Flow Ratio [], 1.00000
 Component Sizing Information, AirLoopHVAC, SP-PERIMETER_ZN_1 SYS-3 FLR-1 SCH-A HPLCMT-SOUTH ZN NECB SYSTEM 3 PSZ, Sum of Air Terminal Maximum Heating Flow Rates [m3/s], 0.44365
 Component Sizing Information, AirLoopHVAC, SP-PERIMETER_ZN_1 SYS-3 FLR-1 SCH-A HPLCMT-SOUTH ZN NECB SYSTEM 3 PSZ, Sum of Air Terminal Minimum Heating Flow Rates [m3/s], 0.44365
 Component Sizing Information, AirLoopHVAC, SP-PERIMETER_ZN_1 SYS-3 FLR-1 SCH-A HPLCMT-SOUTH ZN NECB SYSTEM 3 PSZ, Sum of Air Terminal Maximum Flow Rates [m3/s], 0.44365
 Component Sizing Information, AirLoopHVAC, SP-PERIMETER_ZN_1 SYS-3 FLR-1 SCH-A HPLCMT-SOUTH ZN NECB SYSTEM 3 PSZ, Adjusted Heating Design Air Flow Rate [m3/s], 0.44365
 Component Sizing Information, AirLoopHVAC, SP-PERIMETER_ZN_1 SYS-3 FLR-1 SCH-A HPLCMT-SOUTH ZN NECB SYSTEM 3 PSZ, Adjusted Cooling Design Air Flow Rate [m3/s], 0.44365
 Component Sizing Information, AirLoopHVAC, SP-PERIMETER_ZN_1 SYS-3 FLR-1 SCH-A HPLCMT-SOUTH ZN NECB SYSTEM 3 PSZ, Adjusted Main Design Air Flow Rate [m3/s], 0.44365
 Component Sizing Information, AirLoopHVAC, SP-PERIMETER_ZN_1 SYS-3 FLR-1 SCH-A HPLCMT-SOUTH ZN NECB SYSTEM 3 PSZ, User Heating Air Flow Ratio [], 1.00000
 Component Sizing Information, AirLoopHVAC, SP-PERIMETER_ZN_1 SYS-3 FLR-1 SCH-A HPLCMT-SOUTH ZN NECB SYSTEM 3 PSZ, Calculated Heating Air Flow Ratio [], 1.00000
 Component Sizing Information, AirLoopHVAC, SP-PERIMETER_ZN_2 SYS-3 FLR-1 SCH-A HPLCMT-EAST ZN NECB SYSTEM 3 PSZ, Sum of Air Terminal Maximum Heating Flow Rates [m3/s], 0.29534
 Component Sizing Information, AirLoopHVAC, SP-PERIMETER_ZN_2 SYS-3 FLR-1 SCH-A HPLCMT-EAST ZN NECB SYSTEM 3 PSZ, Sum of Air Terminal Minimum Heating Flow Rates [m3/s], 0.29534
 Component Sizing Information, AirLoopHVAC, SP-PERIMETER_ZN_2 SYS-3 FLR-1 SCH-A HPLCMT-EAST ZN NECB SYSTEM 3 PSZ, Sum of Air Terminal Maximum Flow Rates [m3/s], 0.29534
 Component Sizing Information, AirLoopHVAC, SP-PERIMETER_ZN_2 SYS-3 FLR-1 SCH-A HPLCMT-EAST ZN NECB SYSTEM 3 PSZ, Adjusted Heating Design Air Flow Rate [m3/s], 0.29534
 Component Sizing Information, AirLoopHVAC, SP-PERIMETER_ZN_2 SYS-3 FLR-1 SCH-A HPLCMT-EAST ZN NECB SYSTEM 3 PSZ, Adjusted Cooling Design Air Flow Rate [m3/s], 0.29534
 Component Sizing Information, AirLoopHVAC, SP-PERIMETER_ZN_2 SYS-3 FLR-1 SCH-A HPLCMT-EAST ZN NECB SYSTEM 3 PSZ, Adjusted Main Design Air Flow Rate [m3/s], 0.29534
 Component Sizing Information, AirLoopHVAC, SP-PERIMETER_ZN_2 SYS-3 FLR-1 SCH-A HPLCMT-EAST ZN NECB SYSTEM 3 PSZ, User Heating Air Flow Ratio [], 1.00000
 Component Sizing Information, AirLoopHVAC, SP-PERIMETER_ZN_2 SYS-3 FLR-1 SCH-A HPLCMT-EAST ZN NECB SYSTEM 3 PSZ, Calculated Heating Air Flow Ratio [], 1.00000
 Component Sizing Information, AirLoopHVAC, SP-PERIMETER_ZN_3 SYS-3 FLR-1 SCH-A HPLCMT-NORTH ZN NECB SYSTEM 3 PSZ, Sum of Air Terminal Maximum Heating Flow Rates [m3/s], 0.24893
 Component Sizing Information, AirLoopHVAC, SP-PERIMETER_ZN_3 SYS-3 FLR-1 SCH-A HPLCMT-NORTH ZN NECB SYSTEM 3 PSZ, Sum of Air Terminal Minimum Heating Flow Rates [m3/s], 0.24893
 Component Sizing Information, AirLoopHVAC, SP-PERIMETER_ZN_3 SYS-3 FLR-1 SCH-A HPLCMT-NORTH ZN NECB SYSTEM 3 PSZ, Sum of Air Terminal Maximum Flow Rates [m3/s], 0.24893
 Component Sizing Information, AirLoopHVAC, SP-PERIMETER_ZN_3 SYS-3 FLR-1 SCH-A HPLCMT-NORTH ZN NECB SYSTEM 3 PSZ, Adjusted Heating Design Air Flow Rate [m3/s], 0.24893
 Component Sizing Information, AirLoopHVAC, SP-PERIMETER_ZN_3 SYS-3 FLR-1 SCH-A HPLCMT-NORTH ZN NECB SYSTEM 3 PSZ, Adjusted Cooling Design Air Flow Rate [m3/s], 0.24893
 Component Sizing Information, AirLoopHVAC, SP-PERIMETER_ZN_3 SYS-3 FLR-1 SCH-A HPLCMT-NORTH ZN NECB SYSTEM 3 PSZ, Adjusted Main Design Air Flow Rate [m3/s], 0.24893
 Component Sizing Information, AirLoopHVAC, SP-PERIMETER_ZN_3 SYS-3 FLR-1 SCH-A HPLCMT-NORTH ZN NECB SYSTEM 3 PSZ, User Heating Air Flow Ratio [], 1.00000
 Component Sizing Information, AirLoopHVAC, SP-PERIMETER_ZN_3 SYS-3 FLR-1 SCH-A HPLCMT-NORTH ZN NECB SYSTEM 3 PSZ, Calculated Heating Air Flow Ratio [], 1.00000
 Component Sizing Information, AirLoopHVAC, SP-PERIMETER_ZN_4 SYS-3 FLR-1 SCH-A HPLCMT-WEST ZN NECB SYSTEM 3 PSZ, Sum of Air Terminal Maximum Heating Flow Rates [m3/s], 0.31263
 Component Sizing Information, AirLoopHVAC, SP-PERIMETER_ZN_4 SYS-3 FLR-1 SCH-A HPLCMT-WEST ZN NECB SYSTEM 3 PSZ, Sum of Air Terminal Minimum Heating Flow Rates [m3/s], 0.31263
 Component Sizing Information, AirLoopHVAC, SP-PERIMETER_ZN_4 SYS-3 FLR-1 SCH-A HPLCMT-WEST ZN NECB SYSTEM 3 PSZ, Sum of Air Terminal Maximum Flow Rates [m3/s], 0.31263
 Component Sizing Information, AirLoopHVAC, SP-PERIMETER_ZN_4 SYS-3 FLR-1 SCH-A HPLCMT-WEST ZN NECB SYSTEM 3 PSZ, Adjusted Heating Design Air Flow Rate [m3/s], 0.31263
 Component Sizing Information, AirLoopHVAC, SP-PERIMETER_ZN_4 SYS-3 FLR-1 SCH-A HPLCMT-WEST ZN NECB SYSTEM 3 PSZ, Adjusted Cooling Design Air Flow Rate [m3/s], 0.31263
 Component Sizing Information, AirLoopHVAC, SP-PERIMETER_ZN_4 SYS-3 FLR-1 SCH-A HPLCMT-WEST ZN NECB SYSTEM 3 PSZ, Adjusted Main Design Air Flow Rate [m3/s], 0.31263
 Component Sizing Information, AirLoopHVAC, SP-PERIMETER_ZN_4 SYS-3 FLR-1 SCH-A HPLCMT-WEST ZN NECB SYSTEM 3 PSZ, User Heating Air Flow Ratio [], 1.00000
 Component Sizing Information, AirLoopHVAC, SP-PERIMETER_ZN_4 SYS-3 FLR-1 SCH-A HPLCMT-WEST ZN NECB SYSTEM 3 PSZ, Calculated Heating Air Flow Ratio [], 1.00000
 Component Sizing Information, AirLoopHVAC, SP-CORE_ZN SYS-3 FLR-1 SCH-A HPLCMT-CORE ZN NECB SYSTEM 3 PSZ, Design Supply Air Flow Rate [m3/s], 0.26568
 Component Sizing Information, AirLoopHVAC, SP-PERIMETER_ZN_1 SYS-3 FLR-1 SCH-A HPLCMT-SOUTH ZN NECB SYSTEM 3 PSZ, Design Supply Air Flow Rate [m3/s], 0.44365
 Component Sizing Information, AirLoopHVAC, SP-PERIMETER_ZN_2 SYS-3 FLR-1 SCH-A HPLCMT-EAST ZN NECB SYSTEM 3 PSZ, Design Supply Air Flow Rate [m3/s], 0.29534
 Component Sizing Information, AirLoopHVAC, SP-PERIMETER_ZN_3 SYS-3 FLR-1 SCH-A HPLCMT-NORTH ZN NECB SYSTEM 3 PSZ, Design Supply Air Flow Rate [m3/s], 0.24893
 Component Sizing Information, AirLoopHVAC, SP-PERIMETER_ZN_4 SYS-3 FLR-1 SCH-A HPLCMT-WEST ZN NECB SYSTEM 3 PSZ, Design Supply Air Flow Rate [m3/s], 0.31263
!<Controller:MechanicalVentilation>,Name,Availability Schedule Name,Demand Controlled Ventilation {Yes/No},System Outdoor Air Method,Zone Maximum Outdoor Air Fraction,Number of Zones,Zone Name,DSOA Name,DSZAD Name
 Controller:MechanicalVentilation,CONTROLLER MECHANICAL VENTILATION 5,ALWAYS ON DISCRETE,No,ZoneSum,1.00,1,SP-CORE_ZN SYS-3 FLR-1 SCH-A HPLCMT-CORE ZN,SPACE FUNCTION OFFICE ENCLOSED > 25 M2 VENTILATION,SP-CORE_ZN SYS-3 FLR-1 SCH-A HPLCMT-CORE ZN DESIGN SPEC ZONE AIR DIST
 Controller:MechanicalVentilation,CONTROLLER MECHANICAL VENTILATION 4,SP-PERIMETER_ZN_1 SYS-3 FLR-1 SCH-A HPLCMT-SOUTH ZN NECB SYSTEM 3 PSZ OCC SCH,No,ZoneSum,1.00,1,SP-PERIMETER_ZN_1 SYS-3 FLR-1 SCH-A HPLCMT-SOUTH ZN,SPACE FUNCTION OFFICE ENCLOSED > 25 M2 VENTILATION,SP-PERIMETER_ZN_1 SYS-3 FLR-1 SCH-A HPLCMT-SOUTH ZN DESIGN SPEC ZONE AIR DIST
 Controller:MechanicalVentilation,CONTROLLER MECHANICAL VENTILATION 2,ALWAYS ON DISCRETE,No,ZoneSum,1.00,1,SP-PERIMETER_ZN_2 SYS-3 FLR-1 SCH-A HPLCMT-EAST ZN,SPACE FUNCTION OFFICE ENCLOSED > 25 M2 VENTILATION,SP-PERIMETER_ZN_2 SYS-3 FLR-1 SCH-A HPLCMT-EAST ZN DESIGN SPEC ZONE AIR DIST
 Controller:MechanicalVentilation,CONTROLLER MECHANICAL VENTILATION 1,ALWAYS ON DISCRETE,No,ZoneSum,1.00,1,SP-PERIMETER_ZN_3 SYS-3 FLR-1 SCH-A HPLCMT-NORTH ZN,SPACE FUNCTION OFFICE ENCLOSED > 25 M2 VENTILATION,SP-PERIMETER_ZN_3 SYS-3 FLR-1 SCH-A HPLCMT-NORTH ZN DESIGN SPEC ZONE AIR DIST
 Controller:MechanicalVentilation,CONTROLLER MECHANICAL VENTILATION 3,ALWAYS ON DISCRETE,No,ZoneSum,1.00,1,SP-PERIMETER_ZN_4 SYS-3 FLR-1 SCH-A HPLCMT-WEST ZN,SPACE FUNCTION OFFICE ENCLOSED > 25 M2 VENTILATION,SP-PERIMETER_ZN_4 SYS-3 FLR-1 SCH-A HPLCMT-WEST ZN DESIGN SPEC ZONE AIR DIST
 Component Sizing Information, Controller:OutdoorAir, CONTROLLER OUTDOOR AIR 5, Maximum Outdoor Air Flow Rate [m3/s], 0.26568
 Component Sizing Information, Controller:OutdoorAir, CONTROLLER OUTDOOR AIR 5, Minimum Outdoor Air Flow Rate [m3/s], 6.31015E-002
 Component Sizing Information, Coil:Cooling:DX:SingleSpeed, COIL COOLING DX SINGLE SPEED 5 15KBTU/HR 14.0SEER, Design Size Rated Air Flow Rate [m3/s], 0.26568
 Component Sizing Information, Coil:Cooling:DX:SingleSpeed, COIL COOLING DX SINGLE SPEED 5 15KBTU/HR 14.0SEER, Design Size Gross Rated Total Cooling Capacity [W], 4397.94559
 Component Sizing Information, Coil:Cooling:DX:SingleSpeed, COIL COOLING DX SINGLE SPEED 5 15KBTU/HR 14.0SEER, Design Size Gross Rated Sensible Heat Ratio, 0.80066
! <DX Cooling Coil Standard Rating Information>, Component Type, Component Name, Standard Rating (Net) Cooling Capacity {W}, Standard Rated Net COP {W/W}, EER {Btu/W-h}, SEER {Btu/W-h}, IEER {Btu/W-h}
 DX Cooling Coil Standard Rating Information, Coil:Cooling:DX:SingleSpeed, COIL COOLING DX SINGLE SPEED 5 15KBTU/HR 14.0SEER, 4191.4, 3.09, 10.55, 11.12, 10.40
 Component Sizing Information, Coil:Heating:Electric, COIL HEATING ELECTRIC 5, Design Size Nominal Capacity [W], 11283.74913
 Component Sizing Information, Fan:ConstantVolume, FAN CONSTANT VOLUME 5, Design Size Maximum Flow Rate [m3/s], 0.26568
 Component Sizing Information, Controller:OutdoorAir, CONTROLLER OUTDOOR AIR 4, Maximum Outdoor Air Flow Rate [m3/s], 0.44365
 Component Sizing Information, Controller:OutdoorAir, CONTROLLER OUTDOOR AIR 4, Minimum Outdoor Air Flow Rate [m3/s], 4.78351E-002
 Component Sizing Information, Coil:Cooling:DX:SingleSpeed, COIL COOLING DX SINGLE SPEED 4 25KBTU/HR 14.0SEER, Design Size Rated Air Flow Rate [m3/s], 0.44365
 Component Sizing Information, Coil:Cooling:DX:SingleSpeed, COIL COOLING DX SINGLE SPEED 4 25KBTU/HR 14.0SEER, Design Size Gross Rated Total Cooling Capacity [W], 7343.90074
 Component Sizing Information, Coil:Cooling:DX:SingleSpeed, COIL COOLING DX SINGLE SPEED 4 25KBTU/HR 14.0SEER, Design Size Gross Rated Sensible Heat Ratio, 0.80066
 DX Cooling Coil Standard Rating Information, Coil:Cooling:DX:SingleSpeed, COIL COOLING DX SINGLE SPEED 4 25KBTU/HR 14.0SEER, 6999.0, 3.09, 10.55, 11.12, 10.40
 Component Sizing Information, Coil:Heating:Electric, COIL HEATING ELECTRIC 4, Design Size Nominal Capacity [W], 14581.47306
 Component Sizing Information, Fan:ConstantVolume, FAN CONSTANT VOLUME 4, Design Size Maximum Flow Rate [m3/s], 0.44365
 Component Sizing Information, Controller:OutdoorAir, CONTROLLER OUTDOOR AIR 2, Maximum Outdoor Air Flow Rate [m3/s], 0.29534
 Component Sizing Information, Controller:OutdoorAir, CONTROLLER OUTDOOR AIR 2, Minimum Outdoor Air Flow Rate [m3/s], 2.83764E-002
 Component Sizing Information, Coil:Cooling:DX:SingleSpeed, COIL COOLING DX SINGLE SPEED 2 17KBTU/HR 14.0SEER, Design Size Rated Air Flow Rate [m3/s], 0.29534
 Component Sizing Information, Coil:Cooling:DX:SingleSpeed, COIL COOLING DX SINGLE SPEED 2 17KBTU/HR 14.0SEER, Design Size Gross Rated Total Cooling Capacity [W], 4888.95715
 Component Sizing Information, Coil:Cooling:DX:SingleSpeed, COIL COOLING DX SINGLE SPEED 2 17KBTU/HR 14.0SEER, Design Size Gross Rated Sensible Heat Ratio, 0.80066
 DX Cooling Coil Standard Rating Information, Coil:Cooling:DX:SingleSpeed, COIL COOLING DX SINGLE SPEED 2 17KBTU/HR 14.0SEER, 4659.4, 3.09, 10.55, 11.12, 10.40
 Component Sizing Information, Coil:Heating:Electric, COIL HEATING ELECTRIC 2, Design Size Nominal Capacity [W], 9451.87187
 Component Sizing Information, Fan:ConstantVolume, FAN CONSTANT VOLUME 2, Design Size Maximum Flow Rate [m3/s], 0.29534
 Component Sizing Information, Controller:OutdoorAir, CONTROLLER OUTDOOR AIR 1, Maximum Outdoor Air Flow Rate [m3/s], 0.24893
 Component Sizing Information, Controller:OutdoorAir, CONTROLLER OUTDOOR AIR 1, Minimum Outdoor Air Flow Rate [m3/s], 4.78351E-002
 Component Sizing Information, Coil:Cooling:DX:SingleSpeed, COIL COOLING DX SINGLE SPEED 1 14KBTU/HR 14.0SEER, Design Size Rated Air Flow Rate [m3/s], 0.24893
 Component Sizing Information, Coil:Cooling:DX:SingleSpeed, COIL COOLING DX SINGLE SPEED 1 14KBTU/HR 14.0SEER, Design Size Gross Rated Total Cooling Capacity [W], 4120.70640
 Component Sizing Information, Coil:Cooling:DX:SingleSpeed, COIL COOLING DX SINGLE SPEED 1 14KBTU/HR 14.0SEER, Design Size Gross Rated Sensible Heat Ratio, 0.80066
 DX Cooling Coil Standard Rating Information, Coil:Cooling:DX:SingleSpeed, COIL COOLING DX SINGLE SPEED 1 14KBTU/HR 14.0SEER, 3927.2, 3.09, 10.55, 11.12, 10.40
 Component Sizing Information, Coil:Heating:Electric, COIL HEATING ELECTRIC 1, Design Size Nominal Capacity [W], 9728.60189
 Component Sizing Information, Fan:ConstantVolume, FAN CONSTANT VOLUME 1, Design Size Maximum Flow Rate [m3/s], 0.24893
 Component Sizing Information, Controller:OutdoorAir, CONTROLLER OUTDOOR AIR 3, Maximum Outdoor Air Flow Rate [m3/s], 0.31263
 Component Sizing Information, Controller:OutdoorAir, CONTROLLER OUTDOOR AIR 3, Minimum Outdoor Air Flow Rate [m3/s], 2.83764E-002
 Component Sizing Information, Coil:Cooling:DX:SingleSpeed, COIL COOLING DX SINGLE SPEED 3 18KBTU/HR 14.0SEER, Design Size Rated Air Flow Rate [m3/s], 0.31263
 Component Sizing Information, Coil:Cooling:DX:SingleSpeed, COIL COOLING DX SINGLE SPEED 3 18KBTU/HR 14.0SEER, Design Size Gross Rated Total Cooling Capacity [W], 5175.10694
 Component Sizing Information, Coil:Cooling:DX:SingleSpeed, COIL COOLING DX SINGLE SPEED 3 18KBTU/HR 14.0SEER, Design Size Gross Rated Sensible Heat Ratio, 0.80066
 DX Cooling Coil Standard Rating Information, Coil:Cooling:DX:SingleSpeed, COIL COOLING DX SINGLE SPEED 3 18KBTU/HR 14.0SEER, 4932.1, 3.09, 10.55, 11.12, 10.40
 Component Sizing Information, Coil:Heating:Electric, COIL HEATING ELECTRIC 3, Design Size Nominal Capacity [W], 9882.73124
 Component Sizing Information, Fan:ConstantVolume, FAN CONSTANT VOLUME 3, Design Size Maximum Flow Rate [m3/s], 0.31263
Water Heater Information,WaterHeater:Mixed,13GAL ELECTRICITY WATER HEATER - 9KBTU/HR 1.0 THERM EFF,4.8379E-002,2527.8,1.330,1.2146
 Component Sizing Information, PlantLoop, HOT WATER LOOP, Maximum Loop Flow Rate [m3/s], 3.86479E-004
 Component Sizing Information, PlantLoop, HOT WATER LOOP, Plant Loop Volume [m3], 4.63774E-002
 Component Sizing Information, Pump:VariableSpeed, PUMP VARIABLE SPEED 1, Design Flow Rate [m3/s], 3.86479E-004
 Component Sizing Information, Pump:VariableSpeed, PUMP VARIABLE SPEED 1, Design Power Consumption [W], 103.93722
 Component Sizing Information, Boiler:HotWater, PRIMARY BOILER 89KBTU/HR 0.847 AFUE, Design Size Nominal Capacity [W], 25976.14071
 Component Sizing Information, Boiler:HotWater, PRIMARY BOILER 89KBTU/HR 0.847 AFUE, User-Specified Nominal Capacity [W], 25976.14071
 Component Sizing Information, Boiler:HotWater, PRIMARY BOILER 89KBTU/HR 0.847 AFUE, Design Size Design Water Flow Rate [m3/s], 3.86479E-004
 Component Sizing Information, Boiler:HotWater, SECONDARY BOILER 0KBTU/HR 0.847 AFUE, Design Size Nominal Capacity [W], 25976.14071
 Component Sizing Information, Boiler:HotWater, SECONDARY BOILER 0KBTU/HR 0.847 AFUE, User-Specified Nominal Capacity [W], 1.00000E-003
 Component Sizing Information, Boiler:HotWater, SECONDARY BOILER 0KBTU/HR 0.847 AFUE, Design Size Design Water Flow Rate [m3/s], 3.86479E-004
 Component Sizing Information, PlantLoop, MAIN SERVICE WATER LOOP, Maximum Loop Flow Rate [m3/s], 1.22169E-005
 Component Sizing Information, PlantLoop, MAIN SERVICE WATER LOOP, Plant Loop Volume [m3], 1.46603E-003
 Component Sizing Information, Pump:ConstantSpeed, SERVICE WATER LOOP PUMP, Design Flow Rate [m3/s], 1.22169E-005
 Component Sizing Information, Pump:ConstantSpeed, SERVICE WATER LOOP PUMP, Design Power Consumption [W], 9.17707E-004
 Component Sizing Information, WaterHeater:Mixed, 13GAL ELECTRICITY WATER HEATER - 9KBTU/HR 1.0 THERM EFF, Use Side Design Flow Rate [m3/s], 1.22169E-005
! <Environment>,Environment Name,Environment Type, Start Date, End Date, Start DayOfWeek, Duration {#days}, Source:Start DayOfWeek,  Use Daylight Saving, Use Holidays, Apply Weekend Holiday Rule,  Use Rain Values, Use Snow Values
! <Environment:Special Days>, Special Day Name, Special Day Type, Source, Start Date, Duration {#days}
! <Environment:Daylight Saving>, Daylight Saving Indicator, Source, Start Date, End Date
! <Environment:WarmupDays>, NumberofWarmupDays
Environment,YELLOWKNIFE AP ANN CLG .4% CONDNS DB=>MWB,SizingPeriod:DesignDay,07/21,07/21,SummerDesignDay,1,N/A,N/A,N/A,N/A,N/A,N/A
Environment:Daylight Saving,No,SizingPeriod:DesignDay
! <Environment:Design Day Data>, Max Dry-Bulb Temp {C}, Temp Range {dC}, Temp Range Ind Type, Hum Ind Value at Max Temp, Hum Ind Type,Pressure {Pa}, Wind Direction {deg CW from N}, Wind Speed {m/s}, Clearness, Rain, Snow
! <Environment:Design Day Misc>,DayOfYear,ASHRAE A Coeff,ASHRAE B Coeff,ASHRAE C Coeff,Solar Constant-Annual Variation,Eq of Time {minutes}, Solar Declination Angle {deg}, Solar Model
Environment:Design Day Data,25.40,7.90,DefaultMultipliers,98878,150,4.0,0.00,No,No
Environment:Design Day Misc,202,1084.4,0.2082,0.1365,1.0,-6.23,20.6,ASHRAETau
Environment:WarmupDays,  6
! <Tabular Report>,Style,Unit Conversion
Tabular Report,HTML,None
! <Warmup Convergence Information>,Zone Name,Environment Type/Name,Average Warmup Temperature Difference {deltaC},Std Dev Warmup Temperature Difference {deltaC},Max Temperature Pass/Fail Convergence,Min Temperature Pass/Fail Convergence,Average Warmup Load Difference {W},Std Dev Warmup Load Difference {W},Heating Load Pass/Fail Convergence,Cooling Load Pass/Fail Convergence
 Warmup Convergence Information,SP-ATTIC SYS-0 FLR-2 SCH-- UNDEFINED - HPLCMT-CORE ZN,SizingPeriod: YELLOWKNIFE AP ANN CLG .4% CONDNS DB=>MWB,4.3112544470E-002,2.4053333799E-002,Pass,Pass,0.0000000000,0.0000000000,Pass,Pass
 Warmup Convergence Information,SP-CORE_ZN SYS-3 FLR-1 SCH-A HPLCMT-CORE ZN,SizingPeriod: YELLOWKNIFE AP ANN CLG .4% CONDNS DB=>MWB,3.9098617788E-002,0.1642000729,Pass,Pass,2.3834679329,27.7710427430,Pass,Pass
 Warmup Convergence Information,SP-PERIMETER_ZN_1 SYS-3 FLR-1 SCH-A HPLCMT-SOUTH ZN,SizingPeriod: YELLOWKNIFE AP ANN CLG .4% CONDNS DB=>MWB,5.1174054318E-002,0.2519559394,Pass,Pass,9.2867342181E-002,0.5060122474,Pass,Pass
 Warmup Convergence Information,SP-PERIMETER_ZN_2 SYS-3 FLR-1 SCH-A HPLCMT-EAST ZN,SizingPeriod: YELLOWKNIFE AP ANN CLG .4% CONDNS DB=>MWB,7.4131380304E-002,0.3343454325,Pass,Pass,0.1252048183,0.4932379754,Pass,Pass
 Warmup Convergence Information,SP-PERIMETER_ZN_3 SYS-3 FLR-1 SCH-A HPLCMT-NORTH ZN,SizingPeriod: YELLOWKNIFE AP ANN CLG .4% CONDNS DB=>MWB,4.8092782581E-002,0.2038344021,Pass,Pass,0.4012516212,3.3891878938,Pass,Pass
 Warmup Convergence Information,SP-PERIMETER_ZN_4 SYS-3 FLR-1 SCH-A HPLCMT-WEST ZN,SizingPeriod: YELLOWKNIFE AP ANN CLG .4% CONDNS DB=>MWB,6.1264947100E-002,0.3120054290,Pass,Pass,0.1449917649,0.9657507001,Pass,Pass
Environment,YELLOWKNIFE AP ANN HTG 99.6% CONDNS DB,SizingPeriod:DesignDay,01/21,01/21,WinterDesignDay,1,N/A,N/A,N/A,N/A,N/A,N/A
Environment:Daylight Saving,No,SizingPeriod:DesignDay
Environment:Design Day Data,-40.50,0.00,DefaultMultipliers,98878,310,1.7,0.00,No,No
Environment:Design Day Misc, 21,1229.0,0.1415,5.7310E-002,1.0,-11.15,-20.1,ASHRAEClearSky
Environment:WarmupDays,  6
 Warmup Convergence Information,SP-ATTIC SYS-0 FLR-2 SCH-- UNDEFINED - HPLCMT-CORE ZN,SizingPeriod: YELLOWKNIFE AP ANN HTG 99.6% CONDNS DB,2.4082851222E-002,1.0711487759E-002,Pass,Pass,0.0000000000,0.0000000000,Pass,Pass
 Warmup Convergence Information,SP-CORE_ZN SYS-3 FLR-1 SCH-A HPLCMT-CORE ZN,SizingPeriod: YELLOWKNIFE AP ANN HTG 99.6% CONDNS DB,5.5574024616E-002,0.2827409036,Pass,Pass,0.1884399959,0.7124067494,Pass,Pass
 Warmup Convergence Information,SP-PERIMETER_ZN_1 SYS-3 FLR-1 SCH-A HPLCMT-SOUTH ZN,SizingPeriod: YELLOWKNIFE AP ANN HTG 99.6% CONDNS DB,5.5775073480E-002,0.3357350063,Pass,Pass,7.4580057456E-002,0.4274551742,Pass,Pass
 Warmup Convergence Information,SP-PERIMETER_ZN_2 SYS-3 FLR-1 SCH-A HPLCMT-EAST ZN,SizingPeriod: YELLOWKNIFE AP ANN HTG 99.6% CONDNS DB,5.5664328661E-002,0.3348078926,Pass,Pass,8.5342397248E-002,0.5319393169,Pass,Pass
 Warmup Convergence Information,SP-PERIMETER_ZN_3 SYS-3 FLR-1 SCH-A HPLCMT-NORTH ZN,SizingPeriod: YELLOWKNIFE AP ANN HTG 99.6% CONDNS DB,5.5580113270E-002,0.3230590938,Pass,Pass,7.7058540147E-002,0.4061890334,Pass,Pass
 Warmup Convergence Information,SP-PERIMETER_ZN_4 SYS-3 FLR-1 SCH-A HPLCMT-WEST ZN,SizingPeriod: YELLOWKNIFE AP ANN HTG 99.6% CONDNS DB,5.5627925784E-002,0.3338129580,Pass,Pass,8.3480732686E-002,0.5159068057,Pass,Pass
! <Program Control Information:Threads/Parallel Sims>, Threading Supported,Maximum Number of Threads, Env Set Threads (OMP_NUM_THREADS), EP Env Set Threads (EP_OMP_NUM_THREADS), IDF Set Threads, Number of Threads Used (Interior Radiant Exchange), Number Nominal Surfaces, Number Parallel Sims
Program Control:Threads/Parallel Sims, No,1, N/A, N/A, N/A, N/A, N/A, N/A
End of Data
