Program Version,EnergyPlus, Version 8.9.0-eba93e8e1b, YMD=2019.08.13 13:25
! <Version>, Version ID
 Version, 8.9
! <Timesteps per Hour>, #TimeSteps, Minutes per TimeStep {minutes}
 Timesteps per Hour,  1, 60
! <System Convergence Limits>, Minimum System TimeStep {minutes}, Max HVAC Iterations, Minimum Plant Iterations, Maximum Plant Iterations
 System Convergence Limits, 1, 20, 2, 8
! <Simulation Control>, Do Zone Sizing, Do System Sizing, Do Plant Sizing, Do Design Days, Do Weather Simulation, Do HVAC Sizing Simulation
 Simulation Control, Yes, Yes, Yes, No, Yes, No
! <Output Reporting Tolerances>, Tolerance for Time Heating Setpoint Not Met, Tolerance for Zone Cooling Setpoint Not Met Time
 Output Reporting Tolerances, 1.000, 1.000, 
! <Site:GroundTemperature:BuildingSurface>,Jan{C},Feb{C},Mar{C},Apr{C},May{C},Jun{C},Jul{C},Aug{C},Sep{C},Oct{C},Nov{C},Dec{C}
 Site:GroundTemperature:BuildingSurface,  19.53,  19.50,  19.54,  19.60,  20.00,  21.64,  22.23,  22.38,  21.45,  20.12,  19.80,  19.63
! <Site:GroundTemperature:FCfactorMethod>,Jan{C},Feb{C},Mar{C},Apr{C},May{C},Jun{C},Jul{C},Aug{C},Sep{C},Oct{C},Nov{C},Dec{C}
 Site:GroundTemperature:FCfactorMethod, -21.09, -22.83, -19.75, -14.93,  -2.32,   7.41,  13.97,  15.97,  12.57,   5.01,  -5.08, -14.45
! <Site:GroundTemperature:Shallow>,Jan{C},Feb{C},Mar{C},Apr{C},May{C},Jun{C},Jul{C},Aug{C},Sep{C},Oct{C},Nov{C},Dec{C}
 Site:GroundTemperature:Shallow,  13.00,  13.00,  13.00,  13.00,  13.00,  13.00,  13.00,  13.00,  13.00,  13.00,  13.00,  13.00
! <Site:GroundTemperature:Deep>,Jan{C},Feb{C},Mar{C},Apr{C},May{C},Jun{C},Jul{C},Aug{C},Sep{C},Oct{C},Nov{C},Dec{C}
 Site:GroundTemperature:Deep,  16.00,  16.00,  16.00,  16.00,  16.00,  16.00,  16.00,  16.00,  16.00,  16.00,  16.00,  16.00
! <Site:GroundReflectance>,Jan{dimensionless},Feb{dimensionless},Mar{dimensionless},Apr{dimensionless},May{dimensionless},Jun{dimensionless},Jul{dimensionless},Aug{dimensionless},Sep{dimensionless},Oct{dimensionless},Nov{dimensionless},Dec{dimensionless}
 Site:GroundReflectance,  0.20,  0.20,  0.20,  0.20,  0.20,  0.20,  0.20,  0.20,  0.20,  0.20,  0.20,  0.20
! <Site:GroundReflectance:SnowModifier>, Normal, Daylighting {dimensionless}
 Site:GroundReflectance:SnowModifier,   1.000,   1.000
! <Site:GroundReflectance:Snow>,Jan{dimensionless},Feb{dimensionless},Mar{dimensionless},Apr{dimensionless},May{dimensionless},Jun{dimensionless},Jul{dimensionless},Aug{dimensionless},Sep{dimensionless},Oct{dimensionless},Nov{dimensionless},Dec{dimensionless}
 Site:GroundReflectance:Snow,  0.20,  0.20,  0.20,  0.20,  0.20,  0.20,  0.20,  0.20,  0.20,  0.20,  0.20,  0.20
! <Site:GroundReflectance:Snow:Daylighting>,Jan{dimensionless},Feb{dimensionless},Mar{dimensionless},Apr{dimensionless},May{dimensionless},Jun{dimensionless},Jul{dimensionless},Aug{dimensionless},Sep{dimensionless},Oct{dimensionless},Nov{dimensionless},Dec{dimensionless}
 Site:GroundReflectance:Snow:Daylighting,  0.20,  0.20,  0.20,  0.20,  0.20,  0.20,  0.20,  0.20,  0.20,  0.20,  0.20,  0.20
! <Environment:Weather Station>,Wind Sensor Height Above Ground {m},Wind Speed Profile Exponent {},Wind Speed Profile Boundary Layer Thickness {m},Air Temperature Sensor Height Above Ground {m},Wind Speed Modifier Coefficient-Internal,Temperature Modifier Coefficient-Internal
Environment:Weather Station,10.000,0.140,270.000,1.500,1.586,9.750E-003
! <Site:Location>, Location Name, Latitude {N+/S- Deg}, Longitude {E+/W- Deg},  Time Zone Number {GMT+/-}, Elevation {m},  Standard Pressure at Elevation {Pa}, Standard RhoAir at Elevation
Site:Location,Yellowknife AP NT CAN CWEC2016 WMO#=719360,62.46,-114.44,-7.00,205.70,98878,1.1752
! <Building Information>, Building Name,North Axis {deg},Terrain,  Loads Convergence Tolerance Value,Temperature Convergence Tolerance Value,  Solar Distribution,Maximum Number of Warmup Days,Minimum Number of Warmup Days
 Building Information,Warehouse-CAN_NT_Yellowknife.AP.719360_CWEC2016.epw created: 2019-08-08 04:21:15 +0000,0.000,Suburbs,4.00000E-002,0.40000,FullExterior,25,6
! <Inside Convection Algorithm>, Algorithm {Simple | TARP | CeilingDiffuser | AdaptiveConvectionAlgorithm}
Inside Convection Algorithm,TARP
! <Outside Convection Algorithm>, Algorithm {SimpleCombined | TARP | MoWitt | DOE-2 | AdaptiveConvectionAlgorithm}
Outside Convection Algorithm,TARP
! <Sky Radiance Distribution>, Value {Anisotropic}
Sky Radiance Distribution,Anisotropic
! <Zone Air Solution Algorithm>, Value {ThirdOrderBackwardDifference | AnalyticalSolution | EulerMethod}
 Zone Air Solution Algorithm, ThirdOrderBackwardDifference
! <Zone Air Carbon Dioxide Balance Simulation>, Simulation {Yes/No}, Carbon Dioxide Concentration
 Zone Air Carbon Dioxide Balance Simulation, No,N/A
! <Zone Air Generic Contaminant Balance Simulation>, Simulation {Yes/No}, Generic Contaminant Concentration
 Zone Air Generic Contaminant Balance Simulation, No,N/A
! <Zone Air Mass Flow Balance Simulation>, Enforce Mass Balance, Adjust Zone Mixing, Adjust Zone Infiltration {AddInfiltration | AdjustInfiltration | None}, Infiltration Zones {MixingSourceZonesOnly | AllZones}
 Zone Air Mass Flow Balance Simulation, No,N/A,N/A,N/A
! <HVACSystemRootFindingAlgorithm>, Value {RegulaFalsi | Bisection | BisectionThenRegulaFalsi | RegulaFalsiThenBisection}
 HVACSystemRootFindingAlgorithm, RegulaFalsi
! <Environment:Site Atmospheric Variation>,Wind Speed Profile Exponent {},Wind Speed Profile Boundary Layer Thickness {m},Air Temperature Gradient Coefficient {K/m}
Environment:Site Atmospheric Variation,0.220,370.000,6.500000E-003
! <Surface Geometry>,Starting Corner,Vertex Input Direction,Coordinate System,Daylight Reference Point Coordinate System,Rectangular (Simple) Surface Coordinate System
 Surface Geometry,UpperLeftCorner,Counterclockwise,RelativeCoordinateSystem,RelativeCoordinateSystem,RelativeToZoneOrigin
! <Surface Heat Transfer Algorithm>, Value {CTF - ConductionTransferFunction | EMPD - MoisturePenetrationDepthConductionTransferFunction | CondFD - ConductionFiniteDifference | HAMT - CombinedHeatAndMoistureFiniteElement} - Description,Inside Surface Max Temperature Limit{C}, Surface Convection Coefficient Lower Limit {W/m2-K}, Surface Convection Coefficient Upper Limit {W/m2-K}
Surface Heat Transfer Algorithm, CTF - ConductionTransferFunction,200,0.10,1000.0
! <Shading Summary>, Number of Fixed Detached Shades, Number of Building Detached Shades, Number of Attached Shades
 Shading Summary,0,0,6
! <Zone Summary>, Number of Zones, Number of Zone Surfaces, Number of SubSurfaces
 Zone Summary,3,33,10
! <Zone Information>,Zone Name,North Axis {deg},Origin X-Coordinate {m},Origin Y-Coordinate {m},Origin Z-Coordinate {m},Centroid X-Coordinate {m},Centroid Y-Coordinate {m},Centroid Z-Coordinate {m},Type,Zone Multiplier,Zone List Multiplier,Minimum X {m},Maximum X {m},Minimum Y {m},Maximum Y {m},Minimum Z {m},Maximum Z {m},Ceiling Height {m},Volume {m3},Zone Inside Convection Algorithm {Simple-Detailed-CeilingDiffuser-TrombeWall},Zone Outside Convection Algorithm {Simple-Detailed-Tarp-MoWitt-DOE-2-BLAST}, Floor Area {m2},Exterior Gross Wall Area {m2},Exterior Net Wall Area {m2},Exterior Window Area {m2}, Number of Surfaces, Number of SubSurfaces, Number of Shading SubSurfaces,  Part of Total Building Area
 Zone Information, ALL_ST=OFFICE ENCLOSED <= 25 M2_FL=BUILDING STORY 1_SCH=A,0.0,0.00,0.00,0.00,12.95,4.57,2.13,1,1,1,0.00,25.91,0.00,9.14,0.00,4.27,4.27,1010.76,TARP,TARP,236.88,149.56,137.59,11.96,6,2,2,Yes
 Zone Information, ALL_ST=WAREHOUSE STORAGE AREA MEDIUM TO BULKY PALLETIZED ITEMS_FL=BUILDING STORY 1_SCH=A,0.0,0.00,0.00,0.00,22.86,65.53,4.27,1,1,1,0.00,45.72,30.48,100.58,0.00,8.53,8.53,35277.63,TARP,TARP,3204.84,1586.63,1459.70,126.93,6,3,0,Yes
 Zone Information, ALL_ST=WAREHOUSE STORAGE AREA SMALL HAND-CARRIED ITEMS(4)_FL=BUILDING STORY 1_SCH=A,0.0,0.00,0.00,0.00,22.82,14.29,4.51,1,1,1,0.00,45.72,0.00,30.48,0.00,8.53,7.81,2953.02,TARP,TARP,1393.41,760.80,699.94,60.86,11,5,4,Yes
! <Zone Internal Gains Nominal>,Zone Name, Floor Area {m2},# Occupants,Area per Occupant {m2/person},Occupant per Area {person/m2},Interior Lighting {W/m2},Electric Load {W/m2},Gas Load {W/m2},Other Load {W/m2},Hot Water Eq {W/m2},Steam Equipment {W/m2},Sum Loads per Area {W/m2},Outdoor Controlled Baseboard Heat
 Zone Internal Gains Nominal, ALL_ST=OFFICE ENCLOSED <= 25 M2_FL=BUILDING STORY 1_SCH=A,236.88,11.8,19.993,5.002E-002,4.000,3.751,0.000,0.000,0.000,0.000,7.751,No
 Zone Internal Gains Nominal, ALL_ST=WAREHOUSE STORAGE AREA MEDIUM TO BULKY PALLETIZED ITEMS_FL=BUILDING STORY 1_SCH=A,3204.84,32.1,99.964,1.000E-002,1.800,0.500,0.000,0.000,0.000,0.000,2.300,No
 Zone Internal Gains Nominal, ALL_ST=WAREHOUSE STORAGE AREA SMALL HAND-CARRIED ITEMS(4)_FL=BUILDING STORY 1_SCH=A,1393.41,27.9,49.982,2.001E-002,3.700,0.500,0.000,0.000,0.000,0.000,4.200,No
! <People Internal Gains Nominal>,Name,Schedule Name,Zone Name,Zone Floor Area {m2},# Zone Occupants,Number of People {},People/Floor Area {person/m2},Floor Area per person {m2/person},Fraction Radiant,Fraction Convected,Sensible Fraction Calculation,Activity level,ASHRAE 55 Warnings,Carbon Dioxide Generation Rate,Nominal Minimum Number of People,Nominal Maximum Number of People
 People Internal Gains Nominal, ALL_ST=OFFICE ENCLOSED <= 25 M2_FL=BUILDING STORY 1_SCH=A SPACE FUNCTION OFFICE ENCLOSED <= 25 M2 PEOPLE,NECB-A-OCCUPANCY,ALL_ST=OFFICE ENCLOSED <= 25 M2_FL=BUILDING STORY 1_SCH=A,236.88,11.8,11.8,5.002E-002,19.993,0.300,0.700,AutoCalculate,NECB-ACTIVITY,No,3.8200E-008,0,11
 People Internal Gains Nominal, ALL_ST=WAREHOUSE STORAGE AREA MEDIUM TO BULKY PALLETIZED ITEMS_FL=BUILDING STORY 1_SCH=A SPACE FUNCTION WAREHOUSE STORAGE AREA MEDIUM TO BULKY PALLETIZED ITEMS PEOPLE,NECB-A-OCCUPANCY,ALL_ST=WAREHOUSE STORAGE AREA MEDIUM TO BULKY PALLETIZED ITEMS_FL=BUILDING STORY 1_SCH=A,3204.84,32.1,32.1,1.000E-002,99.964,0.300,0.700,AutoCalculate,NECB-ACTIVITY,No,3.8200E-008,0,29
 People Internal Gains Nominal, ALL_ST=WAREHOUSE STORAGE AREA SMALL HAND-CARRIED ITEMS(4)_FL=BUILDING STORY 1_SCH=A SPACE FUNCTION WAREHOUSE STORAGE AREA SMALL HAND-CARRIED ITEMS(4) PEOPLE,NECB-A-OCCUPANCY,ALL_ST=WAREHOUSE STORAGE AREA SMALL HAND-CARRIED ITEMS(4)_FL=BUILDING STORY 1_SCH=A,1393.41,27.9,27.9,2.001E-002,49.982,0.300,0.700,AutoCalculate,NECB-ACTIVITY,No,3.8200E-008,0,25
! <Lights Internal Gains Nominal>,Name,Schedule Name,Zone Name,Zone Floor Area {m2},# Zone Occupants,Lighting Level {W},Lights/Floor Area {W/m2},Lights per person {W/person},Fraction Return Air,Fraction Radiant,Fraction Short Wave,Fraction Convected,Fraction Replaceable,End-Use Category,Nominal Minimum Lighting Level {W},Nominal Maximum Lighting Level {W}
 Lights Internal Gains Nominal, ALL_ST=OFFICE ENCLOSED <= 25 M2_FL=BUILDING STORY 1_SCH=A SPACE FUNCTION OFFICE ENCLOSED <= 25 M2 LIGHTS 85.0 PERCENT REDUCTION,NECB-A-OCCUPANCY-NECB-A-LIGHTING-0.3-0.1-0.67-LIGHT RULESET,ALL_ST=OFFICE ENCLOSED <= 25 M2_FL=BUILDING STORY 1_SCH=A,236.88,11.8,947.519,4.000,79.971,0.000,0.500,0.200,0.300,1.000,General,33.116,852.767
 Lights Internal Gains Nominal, ALL_ST=WAREHOUSE STORAGE AREA MEDIUM TO BULKY PALLETIZED ITEMS_FL=BUILDING STORY 1_SCH=A SPACE FUNCTION WAREHOUSE STORAGE AREA MEDIUM TO BULKY PALLETIZED ITEMS LIGHTS 85.0 PERCENT REDUCTION,NECB-A-LIGHTING,ALL_ST=WAREHOUSE STORAGE AREA MEDIUM TO BULKY PALLETIZED ITEMS_FL=BUILDING STORY 1_SCH=A,3204.84,32.1,5768.716,1.800,179.935,0.000,0.500,0.200,0.300,1.000,General,288.436,5191.844
 Lights Internal Gains Nominal, ALL_ST=WAREHOUSE STORAGE AREA SMALL HAND-CARRIED ITEMS(4)_FL=BUILDING STORY 1_SCH=A SPACE FUNCTION WAREHOUSE STORAGE AREA SMALL HAND-CARRIED ITEMS(4) LIGHTS 85.0 PERCENT REDUCTION,NECB-A-LIGHTING,ALL_ST=WAREHOUSE STORAGE AREA SMALL HAND-CARRIED ITEMS(4)_FL=BUILDING STORY 1_SCH=A,1393.41,27.9,5155.616,3.700,184.933,0.000,0.500,0.200,0.300,1.000,General,257.781,4640.054
! <ElectricEquipment Internal Gains Nominal>,Name,Schedule Name,Zone Name,Zone Floor Area {m2},# Zone Occupants,Equipment Level {W},Equipment/Floor Area {W/m2},Equipment per person {W/person},Fraction Latent,Fraction Radiant,Fraction Lost,Fraction Convected,End-Use SubCategory,Nominal Minimum Equipment Level {W},Nominal Maximum Equipment Level {W}
 ElectricEquipment Internal Gains Nominal, ALL_ST=OFFICE ENCLOSED <= 25 M2_FL=BUILDING STORY 1_SCH=A SPACE FUNCTION OFFICE ENCLOSED <= 25 M2 ELEC EQUIP 50.0 PERCENT REDUCTION,NECB-A-ELECTRIC-EQUIPMENT,ALL_ST=OFFICE ENCLOSED <= 25 M2_FL=BUILDING STORY 1_SCH=A,236.88,11.8,888.622,3.751,75.000,0.000,0.500,0.000,0.500,General,177.724,799.759
 ElectricEquipment Internal Gains Nominal, ALL_ST=WAREHOUSE STORAGE AREA MEDIUM TO BULKY PALLETIZED ITEMS_FL=BUILDING STORY 1_SCH=A SPACE FUNCTION WAREHOUSE STORAGE AREA MEDIUM TO BULKY PALLETIZED ITEMS ELEC EQUIP 50.0 PERCENT REDUCTION,NECB-A-ELECTRIC-EQUIPMENT,ALL_ST=WAREHOUSE STORAGE AREA MEDIUM TO BULKY PALLETIZED ITEMS_FL=BUILDING STORY 1_SCH=A,3204.84,32.1,1603.003,0.500,50.000,0.000,0.500,0.000,0.500,General,320.601,1442.703
 ElectricEquipment Internal Gains Nominal, ALL_ST=WAREHOUSE STORAGE AREA SMALL HAND-CARRIED ITEMS(4)_FL=BUILDING STORY 1_SCH=A SPACE FUNCTION WAREHOUSE STORAGE AREA SMALL HAND-CARRIED ITEMS(4) ELEC EQUIP 50.0 PERCENT REDUCTION,NECB-A-ELECTRIC-EQUIPMENT,ALL_ST=WAREHOUSE STORAGE AREA SMALL HAND-CARRIED ITEMS(4)_FL=BUILDING STORY 1_SCH=A,1393.41,27.9,696.958,0.500,25.000,0.000,0.500,0.000,0.500,General,139.392,627.262
! <Shadowing/Sun Position Calculations Annual Simulations>, Calculation Method, Value {days}, Allowable Number Figures in Shadow Overlap {}, Polygon Clipping Algorithm, Sky Diffuse Modeling Algorithm, External Shading Calculation Method, Output External Shading Calculation Results, Disable Self-Shading Within Shading Zone Groups, Disable Self-Shading From Shading Zone Groups to Other Zones
Shadowing/Sun Position Calculations Annual Simulations,AverageOverDaysInFrequency,20,15000,SutherlandHodgman,SimpleSkyDiffuseModeling,InternalCalculation,No,No,No
! <Water Heater Information>,Type,Name,Volume {m3},Maximum Capacity {W},Standard Rated Recovery Efficiency, Standard Rated Energy Factor
! <Heat Pump Water Heater Information>,Type,Name,Volume {m3},Maximum Capacity {W},Standard Rated Recovery Efficiency,Standard Rated Energy Factor,"DX Coil Total Cooling Rate {W, HPWH Only}"
! <ZoneInfiltration Airflow Stats Nominal>,Name,Schedule Name,Zone Name, Zone Floor Area {m2}, # Zone Occupants,Design Volume Flow Rate {m3/s},Volume Flow Rate/Floor Area {m3/s/m2},Volume Flow Rate/Exterior Surface Area {m3/s/m2},ACH - Air Changes per Hour,Equation A - Constant Term Coefficient {},Equation B - Temperature Term Coefficient {1/C},Equation C - Velocity Term Coefficient {s/m}, Equation D - Velocity Squared Term Coefficient {s2/m2}
 ZoneInfiltration Airflow Stats Nominal, ZONE1 OFFICE INFILTRATION,ALWAYS ON DISCRETE,ALL_ST=OFFICE ENCLOSED <= 25 M2_FL=BUILDING STORY 1_SCH=A,236.88,11.8,1.029E-002,4.344E-005,6.880E-005,3.665E-002,0.000,0.000,0.224,0.000
 ZoneInfiltration Airflow Stats Nominal, ZONE3 BULK STORAGE INFILTRATION,ALWAYS ON DISCRETE,ALL_ST=WAREHOUSE STORAGE AREA MEDIUM TO BULKY PALLETIZED ITEMS_FL=BUILDING STORY 1_SCH=A,3204.84,32.1,0.330,1.029E-004,6.880E-005,3.364E-002,0.000,0.000,0.224,0.000
 ZoneInfiltration Airflow Stats Nominal, ZONE2 FINE STORAGE INFILTRATION,ALWAYS ON DISCRETE,ALL_ST=WAREHOUSE STORAGE AREA SMALL HAND-CARRIED ITEMS(4)_FL=BUILDING STORY 1_SCH=A,1393.41,27.9,0.148,1.064E-004,6.880E-005,0.181,0.000,0.000,0.224,0.000
! <AirFlow Model>, Simple
 AirFlow Model, Simple
! <RoomAir Model>, Zone Name, Mixing/Mundt/UCSDDV/UCSDCV/UCSDUFI/UCSDUFE/User Defined
RoomAir Model,ALL_ST=OFFICE ENCLOSED <= 25 M2_FL=BUILDING STORY 1_SCH=A,Mixing/Well-Stirred
RoomAir Model,ALL_ST=WAREHOUSE STORAGE AREA MEDIUM TO BULKY PALLETIZED ITEMS_FL=BUILDING STORY 1_SCH=A,Mixing/Well-Stirred
RoomAir Model,ALL_ST=WAREHOUSE STORAGE AREA SMALL HAND-CARRIED ITEMS(4)_FL=BUILDING STORY 1_SCH=A,Mixing/Well-Stirred
! <AirflowNetwork Model:Control>, No Multizone or Distribution/Multizone with Distribution/Multizone without Distribution/Multizone with Distribution only during Fan Operation
AirflowNetwork Model:Control,NoMultizoneOrDistribution
! <Zone Volume Capacitance Multiplier>, Sensible Heat Capacity Multiplier, Moisture Capacity Multiplier, Carbon Dioxide Capacity Multiplier, Generic Contaminant Capacity Multiplier
Zone Volume Capacitance Multiplier,   1.000 ,   1.000,   1.000,   1.000
! <Load Timesteps in Zone Design Calculation Averaging Window>, Value
 Load Timesteps in Zone Design Calculation Averaging Window,    1
! <Heating Sizing Factor Information>, Sizing Factor ID, Value
 Heating Sizing Factor Information, Global,   1.3000    
 Heating Sizing Factor Information, Zone ALL_ST=OFFICE ENCLOSED <= 25 M2_FL=BUILDING STORY 1_SCH=A,   1.3000    
 Heating Sizing Factor Information, Zone ALL_ST=WAREHOUSE STORAGE AREA MEDIUM TO BULKY PALLETIZED ITEMS_FL=BUILDING STORY 1_SCH=A,   1.3000    
 Heating Sizing Factor Information, Zone ALL_ST=WAREHOUSE STORAGE AREA SMALL HAND-CARRIED ITEMS(4)_FL=BUILDING STORY 1_SCH=A,   1.3000    
! <Cooling Sizing Factor Information>, Sizing Factor ID, Value
 Cooling Sizing Factor Information, Global,   1.1000    
 Cooling Sizing Factor Information, Zone ALL_ST=OFFICE ENCLOSED <= 25 M2_FL=BUILDING STORY 1_SCH=A,   1.1000    
 Cooling Sizing Factor Information, Zone ALL_ST=WAREHOUSE STORAGE AREA MEDIUM TO BULKY PALLETIZED ITEMS_FL=BUILDING STORY 1_SCH=A,   1.1000    
 Cooling Sizing Factor Information, Zone ALL_ST=WAREHOUSE STORAGE AREA SMALL HAND-CARRIED ITEMS(4)_FL=BUILDING STORY 1_SCH=A,   1.1000    
! <Zone Sizing Information>, Zone Name, Load Type, Calc Des Load {W}, User Des Load {W}, Calc Des Air Flow Rate {m3/s}, User Des Air Flow Rate {m3/s}, Design Day Name, Date/Time of Peak, Temperature at Peak {C}, Humidity Ratio at Peak {kgWater/kgDryAir}, Floor Area {m2}, # Occupants, Calc Outdoor Air Flow Rate {m3/s}, Calc DOAS Heat Addition Rate {W}
 Zone Sizing Information, ALL_ST=OFFICE ENCLOSED <= 25 M2_FL=BUILDING STORY 1_SCH=A, Cooling, 3799.03091, 4178.93400, 0.28799, 0.31678, YELLOWKNIFE AP ANN CLG .4% CONDNS DB=>MWB, 7/21 16:00:00, 24.92600, 7.78273E-003, 236.87965, 11.84829, 9.98779E-002, 0.00000
 Zone Sizing Information, ALL_ST=OFFICE ENCLOSED <= 25 M2_FL=BUILDING STORY 1_SCH=A, Heating, 5905.71738, 7677.43260, 0.22739, 0.29561, YELLOWKNIFE AP ANN HTG 99.6% CONDNS DB, 1/21 08:00:00, -40.50000, 7.63571E-005, 236.87965, 11.84829, 9.98779E-002, 0.00000
 Zone Sizing Information, ALL_ST=WAREHOUSE STORAGE AREA MEDIUM TO BULKY PALLETIZED ITEMS_FL=BUILDING STORY 1_SCH=A, Cooling, 36721.58919, 40393.74810, 2.78319, 3.06150, YELLOWKNIFE AP ANN CLG .4% CONDNS DB=>MWB, 7/21 17:00:00, 24.29400, 7.78272E-003, 3204.84228, 32.06007, 0.97684, 0.00000
 Zone Sizing Information, ALL_ST=WAREHOUSE STORAGE AREA MEDIUM TO BULKY PALLETIZED ITEMS_FL=BUILDING STORY 1_SCH=A, Heating, 116068.39209, 150888.90972, 4.41628, 5.74116, YELLOWKNIFE AP ANN HTG 99.6% CONDNS DB, 1/21 08:00:00, -40.50000, 7.63571E-005, 3204.84228, 32.06007, 0.97684, 0.00000
 Zone Sizing Information, ALL_ST=WAREHOUSE STORAGE AREA SMALL HAND-CARRIED ITEMS(4)_FL=BUILDING STORY 1_SCH=A, Cooling, 19469.16325, 21416.07957, 1.47567, 1.62323, YELLOWKNIFE AP ANN CLG .4% CONDNS DB=>MWB, 7/21 16:00:00, 24.92600, 7.78273E-003, 1393.40969, 27.87832, 0.42471, 0.00000
 Zone Sizing Information, ALL_ST=WAREHOUSE STORAGE AREA SMALL HAND-CARRIED ITEMS(4)_FL=BUILDING STORY 1_SCH=A, Heating, 43125.22962, 56062.79851, 1.67335, 2.17535, YELLOWKNIFE AP ANN HTG 99.6% CONDNS DB, 1/21 08:00:00, -40.50000, 7.63571E-005, 1393.40969, 27.87832, 0.42471, 0.00000
! <System Sizing Information>, System Name, Load Type, Peak Load Kind, User Design Capacity, Calc Des Air Flow Rate [m3/s], User Des Air Flow Rate [m3/s], Design Day Name, Date/Time of Peak
 System Sizing Information, SYS_3_PSZ ALL_ST=OFFICE ENCLOSED <= 25 M2_FL=BUILDING STORY 1_SCH=A, Cooling, Sensible, 4223.79, 0.31678, 0.31678, YELLOWKNIFE AP ANN CLG .4% CONDNS DB=>MWB, 7/21 05:00:00
 System Sizing Information, SYS_3_PSZ ALL_ST=OFFICE ENCLOSED <= 25 M2_FL=BUILDING STORY 1_SCH=A, Heating, Sensible, 14785.25, 0.29561, 0.29561, YELLOWKNIFE AP ANN HTG 99.6% CONDNS DB, 1/21 08:00:00
 System Sizing Information, SYS_4_PSZ_ALL_ST=WAREHOUSE STORAGE AREA MEDIUM TO BULKY PALLETIZED ITEMS_FL=BUILDING STORY 1_SCH=A, Cooling, Sensible, 40108.51, 3.06150, 3.06150, YELLOWKNIFE AP ANN CLG .4% CONDNS DB=>MWB, 7/21 05:00:00
 System Sizing Information, SYS_4_PSZ_ALL_ST=WAREHOUSE STORAGE AREA MEDIUM TO BULKY PALLETIZED ITEMS_FL=BUILDING STORY 1_SCH=A, Heating, Sensible, 217792.10, 5.74116, 5.74116, YELLOWKNIFE AP ANN HTG 99.6% CONDNS DB, 1/21 08:00:00
 System Sizing Information, SYS_4_PSZ_ALL_ST=WAREHOUSE STORAGE AREA SMALL HAND-CARRIED ITEMS(4)_FL=BUILDING STORY 1_SCH=A, Cooling, Sensible, 21549.72, 1.62323, 1.62323, YELLOWKNIFE AP ANN CLG .4% CONDNS DB=>MWB, 7/21 05:00:00
 System Sizing Information, SYS_4_PSZ_ALL_ST=WAREHOUSE STORAGE AREA SMALL HAND-CARRIED ITEMS(4)_FL=BUILDING STORY 1_SCH=A, Heating, Sensible, 86096.23, 2.17535, 2.17535, YELLOWKNIFE AP ANN HTG 99.6% CONDNS DB, 1/21 08:00:00
! <Component Sizing Information>, Component Type, Component Name, Input Field Description, Value
 Component Sizing Information, ZoneHVAC:EnergyRecoveryVentilator, ALL_ST=OFFICE ENCLOSED <= 25 M2_FL=BUILDING STORY 1_SCH=A ERV DOAS, Design Size Supply Air Flow Rate [m3/s], 9.98779E-002
 Component Sizing Information, Fan:OnOff, ALL_ST=OFFICE ENCLOSED <= 25 M2_FL=BUILDING STORY 1_SCH=A ERV SUP FAN, Design Size Maximum Flow Rate [m3/s], 9.98779E-002
 Component Sizing Information, Fan:OnOff, ALL_ST=OFFICE ENCLOSED <= 25 M2_FL=BUILDING STORY 1_SCH=A ERV EXH FAN, Design Size Maximum Flow Rate [m3/s], 9.98779E-002
 Component Sizing Information, HeatExchanger:AirToAir:SensibleAndLatent, ALL_ST=OFFICE ENCLOSED <= 25 M2_FL=BUILDING STORY 1_SCH=A ERV HX, Design Size Nominal Supply Air Flow Rate [m3/s], 9.98779E-002
 Component Sizing Information, ZoneHVAC:EnergyRecoveryVentilator, ALL_ST=OFFICE ENCLOSED <= 25 M2_FL=BUILDING STORY 1_SCH=A ERV DOAS, Design Size Exhaust Air Flow Rate [m3/s], 9.98779E-002
 Component Sizing Information, ZoneHVAC:Baseboard:Convective:Water, ZONE HVAC BASEBOARD CONVECTIVE WATER 1, Design Size Maximum Water Flow Rate [m3/s], 1.14669E-004
 Component Sizing Information, ZoneHVAC:Baseboard:Convective:Water, ZONE HVAC BASEBOARD CONVECTIVE WATER 1, Design Size U-Factor Times Area Value [W/K], 231.29509
 Component Sizing Information, AirTerminal:SingleDuct:VAV:HeatAndCool:NoReheat, ALL_ST=OFFICE ENCLOSED <= 25 M2_FL=BUILDING STORY 1_SCH=A VAV TERMINAL, Design Size Maximum Air Flow Rate [m3/s], 0.31678
 Component Sizing Information, AirTerminal:SingleDuct:VAV:HeatAndCool:NoReheat, ALL_ST=OFFICE ENCLOSED <= 25 M2_FL=BUILDING STORY 1_SCH=A VAV TERMINAL, Design Size Constant Minimum Air Flow Fraction, 0.56980
 Component Sizing Information, AirTerminal:SingleDuct:VAV:HeatAndCool:NoReheat, ALL_ST=OFFICE ENCLOSED <= 25 M2_FL=BUILDING STORY 1_SCH=A VAV TERMINAL, User-Specified Constant Minimum Air Flow Fraction, 5.00000E-002
 Component Sizing Information, AirTerminal:SingleDuct:VAV:HeatAndCool:NoReheat, ALL_ST=OFFICE ENCLOSED <= 25 M2_FL=BUILDING STORY 1_SCH=A VAV TERMINAL, Design Size Minimum Air Flow Rate [m3/s], 1.58392E-002
 Component Sizing Information, ZoneHVAC:EnergyRecoveryVentilator, ALL_ST=WAREHOUSE STORAGE AREA MEDIUM TO BULKY PALLETIZED ITEMS_FL=BUILDING STORY 1_SCH=A ERV DOAS, Design Size Supply Air Flow Rate [m3/s], 0.97684
 Component Sizing Information, Fan:OnOff, ALL_ST=WAREHOUSE STORAGE AREA MEDIUM TO BULKY PALLETIZED ITEMS_FL=BUILDING STORY 1_SCH=A ERV SUP FAN, Design Size Maximum Flow Rate [m3/s], 0.97684
 Component Sizing Information, Fan:OnOff, ALL_ST=WAREHOUSE STORAGE AREA MEDIUM TO BULKY PALLETIZED ITEMS_FL=BUILDING STORY 1_SCH=A ERV EXH FAN, Design Size Maximum Flow Rate [m3/s], 0.97684
 Component Sizing Information, HeatExchanger:AirToAir:SensibleAndLatent, ALL_ST=WAREHOUSE STORAGE AREA MEDIUM TO BULKY PALLETIZED ITEMS_FL=BUILDING STORY 1_SCH=A ERV HX, Design Size Nominal Supply Air Flow Rate [m3/s], 0.97684
 Component Sizing Information, ZoneHVAC:EnergyRecoveryVentilator, ALL_ST=WAREHOUSE STORAGE AREA MEDIUM TO BULKY PALLETIZED ITEMS_FL=BUILDING STORY 1_SCH=A ERV DOAS, Design Size Exhaust Air Flow Rate [m3/s], 0.97684
 Component Sizing Information, ZoneHVAC:Baseboard:Convective:Water, ZONE HVAC BASEBOARD CONVECTIVE WATER 3, Design Size Maximum Water Flow Rate [m3/s], 2.25365E-003
 Component Sizing Information, ZoneHVAC:Baseboard:Convective:Water, ZONE HVAC BASEBOARD CONVECTIVE WATER 3, Design Size U-Factor Times Area Value [W/K], 4108.29618
 Component Sizing Information, AirTerminal:SingleDuct:VAV:HeatAndCool:NoReheat, ALL_ST=WAREHOUSE STORAGE AREA MEDIUM TO BULKY PALLETIZED ITEMS_FL=BUILDING STORY 1_SCH=A VAV TERMINAL, Design Size Maximum Air Flow Rate [m3/s], 5.74116
 Component Sizing Information, AirTerminal:SingleDuct:VAV:HeatAndCool:NoReheat, ALL_ST=WAREHOUSE STORAGE AREA MEDIUM TO BULKY PALLETIZED ITEMS_FL=BUILDING STORY 1_SCH=A VAV TERMINAL, Design Size Constant Minimum Air Flow Fraction, 0.42536
 Component Sizing Information, AirTerminal:SingleDuct:VAV:HeatAndCool:NoReheat, ALL_ST=WAREHOUSE STORAGE AREA MEDIUM TO BULKY PALLETIZED ITEMS_FL=BUILDING STORY 1_SCH=A VAV TERMINAL, User-Specified Constant Minimum Air Flow Fraction, 5.00000E-002
 Component Sizing Information, AirTerminal:SingleDuct:VAV:HeatAndCool:NoReheat, ALL_ST=WAREHOUSE STORAGE AREA MEDIUM TO BULKY PALLETIZED ITEMS_FL=BUILDING STORY 1_SCH=A VAV TERMINAL, Design Size Minimum Air Flow Rate [m3/s], 0.28706
 Component Sizing Information, ZoneHVAC:EnergyRecoveryVentilator, ALL_ST=WAREHOUSE STORAGE AREA SMALL HAND-CARRIED ITEMS(4)_FL=BUILDING STORY 1_SCH=A ERV DOAS, Design Size Supply Air Flow Rate [m3/s], 0.42471
 Component Sizing Information, Fan:OnOff, ALL_ST=WAREHOUSE STORAGE AREA SMALL HAND-CARRIED ITEMS(4)_FL=BUILDING STORY 1_SCH=A ERV SUP FAN, Design Size Maximum Flow Rate [m3/s], 0.42471
 Component Sizing Information, Fan:OnOff, ALL_ST=WAREHOUSE STORAGE AREA SMALL HAND-CARRIED ITEMS(4)_FL=BUILDING STORY 1_SCH=A ERV EXH FAN, Design Size Maximum Flow Rate [m3/s], 0.42471
 Component Sizing Information, HeatExchanger:AirToAir:SensibleAndLatent, ALL_ST=WAREHOUSE STORAGE AREA SMALL HAND-CARRIED ITEMS(4)_FL=BUILDING STORY 1_SCH=A ERV HX, Design Size Nominal Supply Air Flow Rate [m3/s], 0.42471
 Component Sizing Information, ZoneHVAC:EnergyRecoveryVentilator, ALL_ST=WAREHOUSE STORAGE AREA SMALL HAND-CARRIED ITEMS(4)_FL=BUILDING STORY 1_SCH=A ERV DOAS, Design Size Exhaust Air Flow Rate [m3/s], 0.42471
 Component Sizing Information, ZoneHVAC:Baseboard:Convective:Water, ZONE HVAC BASEBOARD CONVECTIVE WATER 2, Design Size Maximum Water Flow Rate [m3/s], 8.37343E-004
 Component Sizing Information, ZoneHVAC:Baseboard:Convective:Water, ZONE HVAC BASEBOARD CONVECTIVE WATER 2, Design Size U-Factor Times Area Value [W/K], 1688.44496
 Component Sizing Information, AirTerminal:SingleDuct:VAV:HeatAndCool:NoReheat, ALL_ST=WAREHOUSE STORAGE AREA SMALL HAND-CARRIED ITEMS(4)_FL=BUILDING STORY 1_SCH=A VAV TERMINAL, Design Size Maximum Air Flow Rate [m3/s], 2.17535
 Component Sizing Information, AirTerminal:SingleDuct:VAV:HeatAndCool:NoReheat, ALL_ST=WAREHOUSE STORAGE AREA SMALL HAND-CARRIED ITEMS(4)_FL=BUILDING STORY 1_SCH=A VAV TERMINAL, Design Size Constant Minimum Air Flow Fraction, 0.48809
 Component Sizing Information, AirTerminal:SingleDuct:VAV:HeatAndCool:NoReheat, ALL_ST=WAREHOUSE STORAGE AREA SMALL HAND-CARRIED ITEMS(4)_FL=BUILDING STORY 1_SCH=A VAV TERMINAL, User-Specified Constant Minimum Air Flow Fraction, 5.00000E-002
 Component Sizing Information, AirTerminal:SingleDuct:VAV:HeatAndCool:NoReheat, ALL_ST=WAREHOUSE STORAGE AREA SMALL HAND-CARRIED ITEMS(4)_FL=BUILDING STORY 1_SCH=A VAV TERMINAL, Design Size Minimum Air Flow Rate [m3/s], 0.10877
 Component Sizing Information, AirLoopHVAC, SYS_3_PSZ ALL_ST=OFFICE ENCLOSED <= 25 M2_FL=BUILDING STORY 1_SCH=A, Sum of Air Terminal Maximum Heating Flow Rates [m3/s], 1.58392E-002
 Component Sizing Information, AirLoopHVAC, SYS_3_PSZ ALL_ST=OFFICE ENCLOSED <= 25 M2_FL=BUILDING STORY 1_SCH=A, Sum of Air Terminal Minimum Heating Flow Rates [m3/s], 1.58392E-002
 Component Sizing Information, AirLoopHVAC, SYS_3_PSZ ALL_ST=OFFICE ENCLOSED <= 25 M2_FL=BUILDING STORY 1_SCH=A, Sum of Air Terminal Maximum Flow Rates [m3/s], 0.31678
 Component Sizing Information, AirLoopHVAC, SYS_3_PSZ ALL_ST=OFFICE ENCLOSED <= 25 M2_FL=BUILDING STORY 1_SCH=A, Adjusted Heating Design Air Flow Rate [m3/s], 0.29561
 Component Sizing Information, AirLoopHVAC, SYS_3_PSZ ALL_ST=OFFICE ENCLOSED <= 25 M2_FL=BUILDING STORY 1_SCH=A, Adjusted Cooling Design Air Flow Rate [m3/s], 0.31678
 Component Sizing Information, AirLoopHVAC, SYS_3_PSZ ALL_ST=OFFICE ENCLOSED <= 25 M2_FL=BUILDING STORY 1_SCH=A, Adjusted Main Design Air Flow Rate [m3/s], 0.31678
 Component Sizing Information, AirLoopHVAC, SYS_3_PSZ ALL_ST=OFFICE ENCLOSED <= 25 M2_FL=BUILDING STORY 1_SCH=A, User Heating Air Flow Ratio [], 1.00000
 Component Sizing Information, AirLoopHVAC, SYS_3_PSZ ALL_ST=OFFICE ENCLOSED <= 25 M2_FL=BUILDING STORY 1_SCH=A, Calculated Heating Air Flow Ratio [], 0.93316
 Component Sizing Information, AirLoopHVAC, SYS_4_PSZ_ALL_ST=WAREHOUSE STORAGE AREA MEDIUM TO BULKY PALLETIZED ITEMS_FL=BUILDING STORY 1_SCH=A, Sum of Air Terminal Maximum Heating Flow Rates [m3/s], 0.28706
 Component Sizing Information, AirLoopHVAC, SYS_4_PSZ_ALL_ST=WAREHOUSE STORAGE AREA MEDIUM TO BULKY PALLETIZED ITEMS_FL=BUILDING STORY 1_SCH=A, Sum of Air Terminal Minimum Heating Flow Rates [m3/s], 0.28706
 Component Sizing Information, AirLoopHVAC, SYS_4_PSZ_ALL_ST=WAREHOUSE STORAGE AREA MEDIUM TO BULKY PALLETIZED ITEMS_FL=BUILDING STORY 1_SCH=A, Sum of Air Terminal Maximum Flow Rates [m3/s], 5.74116
 Component Sizing Information, AirLoopHVAC, SYS_4_PSZ_ALL_ST=WAREHOUSE STORAGE AREA MEDIUM TO BULKY PALLETIZED ITEMS_FL=BUILDING STORY 1_SCH=A, Adjusted Heating Design Air Flow Rate [m3/s], 5.74116
 Component Sizing Information, AirLoopHVAC, SYS_4_PSZ_ALL_ST=WAREHOUSE STORAGE AREA MEDIUM TO BULKY PALLETIZED ITEMS_FL=BUILDING STORY 1_SCH=A, Adjusted Cooling Design Air Flow Rate [m3/s], 3.06150
 Component Sizing Information, AirLoopHVAC, SYS_4_PSZ_ALL_ST=WAREHOUSE STORAGE AREA MEDIUM TO BULKY PALLETIZED ITEMS_FL=BUILDING STORY 1_SCH=A, Adjusted Main Design Air Flow Rate [m3/s], 5.74116
 Component Sizing Information, AirLoopHVAC, SYS_4_PSZ_ALL_ST=WAREHOUSE STORAGE AREA MEDIUM TO BULKY PALLETIZED ITEMS_FL=BUILDING STORY 1_SCH=A, User Heating Air Flow Ratio [], 1.00000
 Component Sizing Information, AirLoopHVAC, SYS_4_PSZ_ALL_ST=WAREHOUSE STORAGE AREA MEDIUM TO BULKY PALLETIZED ITEMS_FL=BUILDING STORY 1_SCH=A, Calculated Heating Air Flow Ratio [], 1.00000
 Component Sizing Information, AirLoopHVAC, SYS_4_PSZ_ALL_ST=WAREHOUSE STORAGE AREA SMALL HAND-CARRIED ITEMS(4)_FL=BUILDING STORY 1_SCH=A, Sum of Air Terminal Maximum Heating Flow Rates [m3/s], 0.10877
 Component Sizing Information, AirLoopHVAC, SYS_4_PSZ_ALL_ST=WAREHOUSE STORAGE AREA SMALL HAND-CARRIED ITEMS(4)_FL=BUILDING STORY 1_SCH=A, Sum of Air Terminal Minimum Heating Flow Rates [m3/s], 0.10877
 Component Sizing Information, AirLoopHVAC, SYS_4_PSZ_ALL_ST=WAREHOUSE STORAGE AREA SMALL HAND-CARRIED ITEMS(4)_FL=BUILDING STORY 1_SCH=A, Sum of Air Terminal Maximum Flow Rates [m3/s], 2.17535
 Component Sizing Information, AirLoopHVAC, SYS_4_PSZ_ALL_ST=WAREHOUSE STORAGE AREA SMALL HAND-CARRIED ITEMS(4)_FL=BUILDING STORY 1_SCH=A, Adjusted Heating Design Air Flow Rate [m3/s], 2.17535
 Component Sizing Information, AirLoopHVAC, SYS_4_PSZ_ALL_ST=WAREHOUSE STORAGE AREA SMALL HAND-CARRIED ITEMS(4)_FL=BUILDING STORY 1_SCH=A, Adjusted Cooling Design Air Flow Rate [m3/s], 1.62323
 Component Sizing Information, AirLoopHVAC, SYS_4_PSZ_ALL_ST=WAREHOUSE STORAGE AREA SMALL HAND-CARRIED ITEMS(4)_FL=BUILDING STORY 1_SCH=A, Adjusted Main Design Air Flow Rate [m3/s], 2.17535
 Component Sizing Information, AirLoopHVAC, SYS_4_PSZ_ALL_ST=WAREHOUSE STORAGE AREA SMALL HAND-CARRIED ITEMS(4)_FL=BUILDING STORY 1_SCH=A, User Heating Air Flow Ratio [], 1.00000
 Component Sizing Information, AirLoopHVAC, SYS_4_PSZ_ALL_ST=WAREHOUSE STORAGE AREA SMALL HAND-CARRIED ITEMS(4)_FL=BUILDING STORY 1_SCH=A, Calculated Heating Air Flow Ratio [], 1.00000
 Component Sizing Information, AirLoopHVAC, SYS_3_PSZ ALL_ST=OFFICE ENCLOSED <= 25 M2_FL=BUILDING STORY 1_SCH=A, Design Supply Air Flow Rate [m3/s], 0.31678
 Component Sizing Information, AirLoopHVAC, SYS_4_PSZ_ALL_ST=WAREHOUSE STORAGE AREA MEDIUM TO BULKY PALLETIZED ITEMS_FL=BUILDING STORY 1_SCH=A, Design Supply Air Flow Rate [m3/s], 5.74116
 Component Sizing Information, AirLoopHVAC, SYS_4_PSZ_ALL_ST=WAREHOUSE STORAGE AREA SMALL HAND-CARRIED ITEMS(4)_FL=BUILDING STORY 1_SCH=A, Design Supply Air Flow Rate [m3/s], 2.17535
!<Controller:MechanicalVentilation>,Name,Availability Schedule Name,Demand Controlled Ventilation {Yes/No},System Outdoor Air Method,Zone Maximum Outdoor Air Fraction,Number of Zones,Zone Name,DSOA Name,DSZAD Name
 Controller:MechanicalVentilation,CONTROLLER MECHANICAL VENTILATION 1,SYS_3_PSZ ALL_ST=OFFICE ENCLOSED <= 25 M2_FL=BUILDING STORY 1_SCH=A OCC SCH,No,ZoneSum,1.00,1,ALL_ST=OFFICE ENCLOSED <= 25 M2_FL=BUILDING STORY 1_SCH=A,SPACE FUNCTION OFFICE ENCLOSED <= 25 M2 VENTILATION,ALL_ST=OFFICE ENCLOSED <= 25 M2_FL=BUILDING STORY 1_SCH=A DESIGN SPEC ZONE AIR DIST
 Controller:MechanicalVentilation,CONTROLLER MECHANICAL VENTILATION 3,SYS_4_PSZ_ALL_ST=WAREHOUSE STORAGE AREA MEDIUM TO BULKY PALLETIZED ITEMS_FL=BUILDING STORY 1_SCH=A OCC SCH,No,ZoneSum,1.00,1,ALL_ST=WAREHOUSE STORAGE AREA MEDIUM TO BULKY PALLETIZED ITEMS_FL=BUILDING STORY 1_SCH=A,SPACE FUNCTION WAREHOUSE STORAGE AREA MEDIUM TO BULKY PALLETIZED ITEMS VENTILATION,ALL_ST=WAREHOUSE STORAGE AREA MEDIUM TO BULKY PALLETIZED ITEMS_FL=BUILDING STORY 1_SCH=A DESIGN SPEC ZONE AIR DIST
 Controller:MechanicalVentilation,CONTROLLER MECHANICAL VENTILATION 2,SYS_4_PSZ_ALL_ST=WAREHOUSE STORAGE AREA SMALL HAND-CARRIED ITEMS(4)_FL=BUILDING STORY 1_SCH=A OCC SCH,No,ZoneSum,1.00,1,ALL_ST=WAREHOUSE STORAGE AREA SMALL HAND-CARRIED ITEMS(4)_FL=BUILDING STORY 1_SCH=A,SPACE FUNCTION WAREHOUSE STORAGE AREA SMALL HAND-CARRIED ITEMS(4) VENTILATION,ALL_ST=WAREHOUSE STORAGE AREA SMALL HAND-CARRIED ITEMS(4)_FL=BUILDING STORY 1_SCH=A DESIGN SPEC ZONE AIR DIST
 Component Sizing Information, HeatExchanger:AirToAir:SensibleAndLatent, SYS_3_PSZ ALL_ST=OFFICE ENCLOSED <= 25 M2_FL=BUILDING STORY 1_SCH=A ERV, Design Size Nominal Supply Air Flow Rate [m3/s], 9.98779E-002
 Component Sizing Information, Coil:Cooling:DX:SingleSpeed, COIL COOLING DX SINGLE SPEED 1 48KBTU/HR 14.0SEER, Design Size Rated Air Flow Rate [m3/s], 0.31678
 Component Sizing Information, Coil:Cooling:DX:SingleSpeed, COIL COOLING DX SINGLE SPEED 1 48KBTU/HR 14.0SEER, Design Size Gross Rated Total Cooling Capacity [W], 5243.89229
 Component Sizing Information, Coil:Cooling:DX:SingleSpeed, COIL COOLING DX SINGLE SPEED 1 48KBTU/HR 14.0SEER, Design Size Gross Rated Sensible Heat Ratio, 0.80066
! <DX Cooling Coil Standard Rating Information>, Component Type, Component Name, Standard Rating (Net) Cooling Capacity {W}, Standard Rated Net COP {W/W}, EER {Btu/W-h}, SEER {Btu/W-h}, IEER {Btu/W-h}
 DX Cooling Coil Standard Rating Information, Coil:Cooling:DX:SingleSpeed, COIL COOLING DX SINGLE SPEED 1 48KBTU/HR 14.0SEER, 4997.7, 3.09, 10.55, 11.12, 10.40
 Component Sizing Information, Coil:Heating:Electric, COIL HEATING ELECTRIC 1, Design Size Nominal Capacity [W], 15319.23697
 Component Sizing Information, Fan:VariableVolume, FAN VARIABLE VOLUME 3, Design Size Maximum Flow Rate [m3/s], 0.31678
 Component Sizing Information, HeatExchanger:AirToAir:SensibleAndLatent, SYS_4_PSZ_ALL_ST=WAREHOUSE STORAGE AREA MEDIUM TO BULKY PALLETIZED ITEMS_FL=BUILDING STORY 1_SCH=A ERV, Design Size Nominal Supply Air Flow Rate [m3/s], 0.97684
 Component Sizing Information, Coil:Cooling:DX:SingleSpeed, COIL COOLING DX SINGLE SPEED 3 419KBTU/HR 8.39EER, Design Size Rated Air Flow Rate [m3/s], 5.74116
 Component Sizing Information, Coil:Cooling:DX:SingleSpeed, COIL COOLING DX SINGLE SPEED 3 419KBTU/HR 8.39EER, Design Size Gross Rated Total Cooling Capacity [W], 95036.65868
 Component Sizing Information, Coil:Cooling:DX:SingleSpeed, COIL COOLING DX SINGLE SPEED 3 419KBTU/HR 8.39EER, Design Size Gross Rated Sensible Heat Ratio, 0.80066
 DX Cooling Coil Standard Rating Information, Coil:Cooling:DX:SingleSpeed, COIL COOLING DX SINGLE SPEED 3 419KBTU/HR 8.39EER, 90573.9, 2.59, 8.84, 9.33, 8.88
 Component Sizing Information, Coil:Heating:Electric, COIL HEATING ELECTRIC 3, Design Size Nominal Capacity [W], 217792.09678
 Component Sizing Information, Fan:VariableVolume, FAN VARIABLE VOLUME 1, Design Size Maximum Flow Rate [m3/s], 5.74116
 Component Sizing Information, HeatExchanger:AirToAir:SensibleAndLatent, SYS_4_PSZ_ALL_ST=WAREHOUSE STORAGE AREA SMALL HAND-CARRIED ITEMS(4)_FL=BUILDING STORY 1_SCH=A ERV, Design Size Nominal Supply Air Flow Rate [m3/s], 0.42471
 Component Sizing Information, Coil:Cooling:DX:SingleSpeed, COIL COOLING DX SINGLE SPEED 2 235KBTU/HR 9.26EER, Design Size Rated Air Flow Rate [m3/s], 2.17535
 Component Sizing Information, Coil:Cooling:DX:SingleSpeed, COIL COOLING DX SINGLE SPEED 2 235KBTU/HR 9.26EER, Design Size Gross Rated Total Cooling Capacity [W], 36009.84674
 Component Sizing Information, Coil:Cooling:DX:SingleSpeed, COIL COOLING DX SINGLE SPEED 2 235KBTU/HR 9.26EER, Design Size Gross Rated Sensible Heat Ratio, 0.80066
 DX Cooling Coil Standard Rating Information, Coil:Cooling:DX:SingleSpeed, COIL COOLING DX SINGLE SPEED 2 235KBTU/HR 9.26EER, 34318.9, 2.73, 9.30, 9.81, 9.29
 Component Sizing Information, Coil:Heating:Electric, COIL HEATING ELECTRIC 2, Design Size Nominal Capacity [W], 86096.23067
 Component Sizing Information, Fan:VariableVolume, FAN VARIABLE VOLUME 2, Design Size Maximum Flow Rate [m3/s], 2.17535
 Component Sizing Information, Coil:WaterHeating:AirToWaterHeatPump:Pumped, COIL WATER HEATING AIR TO WATER HEAT PUMP 1, Design Size Rated Evaporator Air Flow Rate [m3/s], 0.27448
 Component Sizing Information, Coil:WaterHeating:AirToWaterHeatPump:Pumped, COIL WATER HEATING AIR TO WATER HEAT PUMP 1, Design Size Rated Condenser Water Flow Rate [m3/s], 2.44603E-004
 Component Sizing Information, Fan:OnOff, FAN ON OFF 1, Design Size Maximum Flow Rate [m3/s], 0.27448
Heat Pump Water Heater Information,WaterHeater:HeatPump:PumpedCondenser,28GAL ELECTRICITY WATER HEATER - 19KBTU/HR 1.0 THERM EFF ASHPWH,0.1043,4447.4,13.128,1.7591,3491
 Component Sizing Information, WaterHeater:HeatPump:PumpedCondenser, 28GAL ELECTRICITY WATER HEATER - 19KBTU/HR 1.0 THERM EFF ASHPWH, Condenser water flow rate [m3/s], 2.44603E-004
 Component Sizing Information, WaterHeater:HeatPump:PumpedCondenser, 28GAL ELECTRICITY WATER HEATER - 19KBTU/HR 1.0 THERM EFF ASHPWH, Evaporator air flow rate [m3/s], 0.27448
 Component Sizing Information, PlantLoop, HOT WATER LOOP, Maximum Loop Flow Rate [m3/s], 3.20566E-003
 Component Sizing Information, PlantLoop, HOT WATER LOOP, Plant Loop Volume [m3], 0.38468
 Component Sizing Information, Pump:VariableSpeed, PUMP VARIABLE SPEED 1, Design Flow Rate [m3/s], 3.20566E-003
 Component Sizing Information, Pump:VariableSpeed, PUMP VARIABLE SPEED 1, Design Power Consumption [W], 964.77564
 Component Sizing Information, Boiler:HotWater, PRIMARY BOILER 435KBTU/HR 0.834 THERMAL EFF, Design Size Nominal Capacity [W], 215459.96331
 Component Sizing Information, Boiler:HotWater, PRIMARY BOILER 435KBTU/HR 0.834 THERMAL EFF, User-Specified Nominal Capacity [W], 127625.34373
 Component Sizing Information, Boiler:HotWater, PRIMARY BOILER 435KBTU/HR 0.834 THERMAL EFF, Design Size Design Water Flow Rate [m3/s], 3.20566E-003
 Component Sizing Information, Boiler:HotWater, SECONDARY BOILER 435KBTU/HR 0.834 THERMAL EFF, Design Size Nominal Capacity [W], 215459.96331
 Component Sizing Information, Boiler:HotWater, SECONDARY BOILER 435KBTU/HR 0.834 THERMAL EFF, User-Specified Nominal Capacity [W], 127625.34373
 Component Sizing Information, Boiler:HotWater, SECONDARY BOILER 435KBTU/HR 0.834 THERMAL EFF, Design Size Design Water Flow Rate [m3/s], 3.20566E-003
 Component Sizing Information, PlantLoop, MAIN SERVICE WATER LOOP, Maximum Loop Flow Rate [m3/s], 2.63466E-005
 Component Sizing Information, PlantLoop, MAIN SERVICE WATER LOOP, Plant Loop Volume [m3], 3.16159E-003
 Component Sizing Information, Pump:ConstantSpeed, SERVICE WATER LOOP PUMP, Design Flow Rate [m3/s], 2.63466E-005
 Component Sizing Information, Pump:ConstantSpeed, SERVICE WATER LOOP PUMP, Design Power Consumption [W], 4.47374E-002
 Component Sizing Information, WaterHeater:Mixed, 28GAL ELECTRICITY WATER HEATER - 19KBTU/HR 1.0 THERM EFF, Use Side Design Flow Rate [m3/s], 2.63466E-005
! <Environment>,Environment Name,Environment Type, Start Date, End Date, Start DayOfWeek, Duration {#days}, Source:Start DayOfWeek,  Use Daylight Saving, Use Holidays, Apply Weekend Holiday Rule,  Use Rain Values, Use Snow Values
! <Environment:Special Days>, Special Day Name, Special Day Type, Source, Start Date, Duration {#days}
! <Environment:Daylight Saving>, Daylight Saving Indicator, Source, Start Date, End Date
! <Environment:WarmupDays>, NumberofWarmupDays
Environment,RUN PERIOD 1,WeatherFileRunPeriod,01/01,12/31,Sunday,365,Use RunPeriod Specified Day,No,No,No,Yes,Yes
Environment:Daylight Saving,No,RunPeriod Object
Environment:WarmupDays,  6
! <Tabular Report>,Style,Unit Conversion
Tabular Report,HTML,None
! <Warmup Convergence Information>,Zone Name,Environment Type/Name,Average Warmup Temperature Difference {deltaC},Std Dev Warmup Temperature Difference {deltaC},Max Temperature Pass/Fail Convergence,Min Temperature Pass/Fail Convergence,Average Warmup Load Difference {W},Std Dev Warmup Load Difference {W},Heating Load Pass/Fail Convergence,Cooling Load Pass/Fail Convergence
 Warmup Convergence Information,ALL_ST=OFFICE ENCLOSED <= 25 M2_FL=BUILDING STORY 1_SCH=A,RunPeriod: RUN PERIOD 1,5.0427194000E-004,3.6719232033E-004,Pass,Pass,0.1661282759,0.3359058874,Pass,Pass
 Warmup Convergence Information,ALL_ST=WAREHOUSE STORAGE AREA MEDIUM TO BULKY PALLETIZED ITEMS_FL=BUILDING STORY 1_SCH=A,RunPeriod: RUN PERIOD 1,6.2709270407E-004,5.5391053644E-004,Pass,Pass,2.1982046334E-002,2.8670294650E-002,Pass,Pass
 Warmup Convergence Information,ALL_ST=WAREHOUSE STORAGE AREA SMALL HAND-CARRIED ITEMS(4)_FL=BUILDING STORY 1_SCH=A,RunPeriod: RUN PERIOD 1,1.1728176205E-003,7.8073776174E-004,Pass,Pass,6.0669290949E-002,0.1054144626,Pass,Pass
! <Program Control Information:Threads/Parallel Sims>, Threading Supported,Maximum Number of Threads, Env Set Threads (OMP_NUM_THREADS), EP Env Set Threads (EP_OMP_NUM_THREADS), IDF Set Threads, Number of Threads Used (Interior Radiant Exchange), Number Nominal Surfaces, Number Parallel Sims
Program Control:Threads/Parallel Sims, No,1, N/A, N/A, N/A, N/A, N/A, N/A
End of Data
