Program Version,EnergyPlus, Version 8.9.0-497bb3e71c, YMD=2018.06.06 17:04,
   ** Warning ** CheckEnvironmentSpecifications: SimulationControl specified doing design day simulations, but no design environments specified.
   **   ~~~   ** ...No design environment results produced. For these results, add appropriate SizingPeriod:* objects for your simulation.
   ** Warning ** ProcessScheduleInput: ScheduleTypeLimits="CONTROLMODE", Unit Type="CONTROLMODE" is invalid.
   ** Warning ** ProcessScheduleInput: ScheduleTypeLimits="LINEARPOWERDENSITY", Unit Type="LINEARPOWERDENSITY" is invalid.
   ** Warning ** ProcessScheduleInput: ScheduleTypeLimits="VOLUMETRICFLOWRATE", Unit Type="VOLUMETRICFLOWRATE" is invalid.
   ** Warning ** ProcessScheduleInput: Schedule:Constant="ALWAYS OFF DISCRETE", Blank Schedule Type Limits Name input -- will not be validated.
   ** Warning ** ProcessScheduleInput: Schedule:Constant="ALWAYS ON CONTINUOUS", Blank Schedule Type Limits Name input -- will not be validated.
   ** Warning ** Output:Meter: invalid Key Name="GAS:FACILITY" - not found.
   ** Warning ** Output:Meter: invalid Key Name="DISTRICTCOOLING:FACILITY" - not found.
   ** Warning ** Output:Meter: invalid Key Name="DISTRICTHEATING:FACILITY" - not found.
   ** Warning ** Output:Meter:MeterFileOnly: invalid Key Name="GAS:FACILITY" - not found.
   ** Warning ** Output:Meter:MeterFileOnly requested for "Electricity:Facility" (TimeStep), already on "Output:Meter". Will report to both eplusout.eso and eplusout.mtr
   ************* Testing Individual Branch Integrity
   ************* All Branches passed integrity testing
   ************* Testing Individual Supply Air Path Integrity
   ************* All Supply Air Paths passed integrity testing
   ************* Testing Individual Return Air Path Integrity
   ************* All Return Air Paths passed integrity testing
   ************* No node connection errors were found.
   ************* Beginning Simulation
   ** Warning ** ManageSimulation: SizingPeriod:* were requested in SimulationControl but no SizingPeriod:* objects in input.
   ************* Simulation Error Summary *************
   ** Warning ** The following Report Variables were requested but not generated -- check.rdd file
   **   ~~~   ** Either the IDF did not contain these elements, the variable name is misspelled,
   **   ~~~   ** or the requested variable is an advanced output which requires Output : Diagnostics, DisplayAdvancedReportVariables;
   ************* Key=*, VarName=ZONE AIR RELATIVE HUMIDITY, Frequency=Hourly
   ************* Key=*, VarName=ZONE AIR TEMPERATURE, Frequency=Hourly
   ************* Key=*, VarName=ZONE AIR RELATIVE HUMIDITY, Frequency=Daily
   ************* There are 9 unused objects in input.
   ************* Use Output:Diagnostics,DisplayUnusedObjects; to see them.
   ************* There are 3 unused schedules in input.
   ************* There are 3 unused week schedules in input.
   ************* There are 4 unused day schedules in input.
   ************* Use Output:Diagnostics,DisplayUnusedSchedules; to see them.
   ************* EnergyPlus Warmup Error Summary. During Warmup: 0 Warning; 0 Severe Errors.
   ************* EnergyPlus Sizing Error Summary. During Sizing: 0 Warning; 0 Severe Errors.
   ************* EnergyPlus Completed Successfully-- 13 Warning; 0 Severe Errors; Elapsed Time=00hr 00min  0.35sec
