Program Version,EnergyPlus, Version 8.9.0-eba93e8e1b, YMD=2019.08.13 15:55
! This file shows details about the branches, nodes, and other
! elements of the flow connections.
! This file is intended for use in "debugging" potential problems
! that may also be detected by the program, but may be more easily
! identified by "eye".
! This file is also intended to support software which draws a
! schematic diagram of the HVAC system.
! ===============================================================
! #Nodes,<Number of Unique Nodes>
 #Nodes,1795
! <Node>,<NodeNumber>,<Node Name>,<Node Fluid Type>,<# Times Node Referenced After Definition>
 Node,1,NODE 476,Air,3
 Node,2,NODE 756,Air,3
 Node,3,NODE 755,Air,3
 Node,4,NODE 53,Air,3
 Node,5,NODE 54,Air,3
 Node,6,NODE 790,Air,3
 Node,7,NODE 51,Air,3
 Node,8,NODE 789,Air,3
 Node,9,NODE 95,Air,3
 Node,10,NODE 96,Air,3
 Node,11,NODE 804,Air,3
 Node,12,NODE 93,Air,3
 Node,13,NODE 803,Air,3
 Node,14,NODE 113,Air,3
 Node,15,NODE 114,Air,3
 Node,16,NODE 810,Air,3
 Node,17,NODE 111,Air,3
 Node,18,NODE 809,Air,3
 Node,19,NODE 203,Air,3
 Node,20,NODE 204,Air,3
 Node,21,NODE 840,Air,3
 Node,22,NODE 201,Air,3
 Node,23,NODE 839,Air,3
 Node,24,NODE 251,Air,3
 Node,25,NODE 252,Air,3
 Node,26,NODE 856,Air,3
 Node,27,NODE 249,Air,3
 Node,28,NODE 855,Air,3
 Node,29,NODE 305,Air,3
 Node,30,NODE 663,Air,2
 Node,31,NODE 306,Air,3
 Node,32,NODE 880,Air,3
 Node,33,NODE 304,Air,3
 Node,34,NODE 660,Air,2
 Node,35,NODE 879,Air,3
 Node,36,NODE 313,Air,3
 Node,37,NODE 314,Air,3
 Node,38,NODE 884,Air,3
 Node,39,NODE 312,Air,3
 Node,40,NODE 883,Air,3
 Node,41,NODE 337,Air,3
 Node,42,NODE 338,Air,3
 Node,43,NODE 896,Air,3
 Node,44,NODE 336,Air,3
 Node,45,NODE 895,Air,3
 Node,46,NODE 18,Air,3
 Node,47,NODE 8,Air,3
 Node,48,NODE 778,Air,3
 Node,49,NODE 17,Air,3
 Node,50,NODE 777,Air,3
 Node,51,NODE 65,Air,3
 Node,52,NODE 66,Air,3
 Node,53,NODE 794,Air,3
 Node,54,NODE 63,Air,3
 Node,55,NODE 793,Air,3
 Node,56,NODE 173,Air,3
 Node,57,NODE 174,Air,3
 Node,58,NODE 830,Air,3
 Node,59,NODE 171,Air,3
 Node,60,NODE 829,Air,3
 Node,61,NODE 269,Air,3
 Node,62,NODE 270,Air,3
 Node,63,NODE 862,Air,3
 Node,64,NODE 267,Air,3
 Node,65,NODE 861,Air,3
 Node,66,NODE 273,Air,3
 Node,67,NODE 274,Air,3
 Node,68,NODE 864,Air,3
 Node,69,NODE 272,Air,3
 Node,70,NODE 863,Air,3
 Node,71,NODE 285,Air,3
 Node,72,NODE 286,Air,3
 Node,73,NODE 870,Air,3
 Node,74,NODE 284,Air,3
 Node,75,NODE 869,Air,3
 Node,76,NODE 341,Air,3
 Node,77,NODE 342,Air,3
 Node,78,NODE 898,Air,3
 Node,79,NODE 340,Air,3
 Node,80,NODE 897,Air,3
 Node,81,NODE 41,Air,3
 Node,82,NODE 42,Air,3
 Node,83,NODE 786,Air,3
 Node,84,NODE 39,Air,3
 Node,85,NODE 785,Air,3
 Node,86,NODE 101,Air,3
 Node,87,NODE 102,Air,3
 Node,88,NODE 806,Air,3
 Node,89,NODE 99,Air,3
 Node,90,NODE 805,Air,3
 Node,91,NODE 257,Air,3
 Node,92,NODE 258,Air,3
 Node,93,NODE 858,Air,3
 Node,94,NODE 255,Air,3
 Node,95,NODE 857,Air,3
 Node,96,NODE 281,Air,3
 Node,97,NODE 282,Air,3
 Node,98,NODE 868,Air,3
 Node,99,NODE 280,Air,3
 Node,100,NODE 867,Air,3
 Node,101,NODE 293,Air,3
 Node,102,NODE 294,Air,3
 Node,103,NODE 874,Air,3
 Node,104,NODE 292,Air,3
 Node,105,NODE 873,Air,3
 Node,106,NODE 321,Air,3
 Node,107,NODE 322,Air,3
 Node,108,NODE 888,Air,3
 Node,109,NODE 320,Air,3
 Node,110,NODE 887,Air,3
 Node,111,NODE 385,Air,3
 Node,112,NODE 386,Air,3
 Node,113,NODE 920,Air,3
 Node,114,NODE 384,Air,3
 Node,115,NODE 919,Air,3
 Node,116,NODE 393,Air,3
 Node,117,NODE 394,Air,3
 Node,118,NODE 924,Air,3
 Node,119,NODE 392,Air,3
 Node,120,NODE 923,Air,3
 Node,121,NODE 35,Air,3
 Node,122,NODE 36,Air,3
 Node,123,NODE 784,Air,3
 Node,124,NODE 33,Air,3
 Node,125,NODE 783,Air,3
 Node,126,NODE 89,Air,3
 Node,127,NODE 90,Air,3
 Node,128,NODE 802,Air,3
 Node,129,NODE 87,Air,3
 Node,130,NODE 801,Air,3
 Node,131,NODE 107,Air,3
 Node,132,NODE 108,Air,3
 Node,133,NODE 808,Air,3
 Node,134,NODE 105,Air,3
 Node,135,NODE 807,Air,3
 Node,136,NODE 277,Air,3
 Node,137,NODE 278,Air,3
 Node,138,NODE 866,Air,3
 Node,139,NODE 276,Air,3
 Node,140,NODE 865,Air,3
 Node,141,NODE 317,Air,3
 Node,142,NODE 318,Air,3
 Node,143,NODE 886,Air,3
 Node,144,NODE 316,Air,3
 Node,145,NODE 885,Air,3
 Node,146,NODE 325,Air,3
 Node,147,NODE 326,Air,3
 Node,148,NODE 890,Air,3
 Node,149,NODE 324,Air,3
 Node,150,NODE 889,Air,3
 Node,151,NODE 353,Air,3
 Node,152,NODE 354,Air,3
 Node,153,NODE 904,Air,3
 Node,154,NODE 352,Air,3
 Node,155,NODE 903,Air,3
 Node,156,NODE 405,Air,3
 Node,157,NODE 406,Air,3
 Node,158,NODE 930,Air,3
 Node,159,NODE 404,Air,3
 Node,160,NODE 929,Air,3
 Node,161,NODE 59,Air,3
 Node,162,NODE 60,Air,3
 Node,163,NODE 792,Air,3
 Node,164,NODE 57,Air,3
 Node,165,NODE 791,Air,3
 Node,166,NODE 161,Air,3
 Node,167,NODE 162,Air,3
 Node,168,NODE 826,Air,3
 Node,169,NODE 159,Air,3
 Node,170,NODE 825,Air,3
 Node,171,NODE 233,Air,3
 Node,172,NODE 234,Air,3
 Node,173,NODE 850,Air,3
 Node,174,NODE 231,Air,3
 Node,175,NODE 849,Air,3
 Node,176,NODE 245,Air,3
 Node,177,NODE 246,Air,3
 Node,178,NODE 854,Air,3
 Node,179,NODE 243,Air,3
 Node,180,NODE 853,Air,3
 Node,181,NODE 365,Air,3
 Node,182,NODE 366,Air,3
 Node,183,NODE 910,Air,3
 Node,184,NODE 364,Air,3
 Node,185,NODE 909,Air,3
 Node,186,NODE 369,Air,3
 Node,187,NODE 370,Air,3
 Node,188,NODE 912,Air,3
 Node,189,NODE 368,Air,3
 Node,190,NODE 911,Air,3
 Node,191,NODE 397,Air,3
 Node,192,NODE 398,Air,3
 Node,193,NODE 926,Air,3
 Node,194,NODE 396,Air,3
 Node,195,NODE 925,Air,3
 Node,196,NODE 413,Air,3
 Node,197,NODE 414,Air,3
 Node,198,NODE 934,Air,3
 Node,199,NODE 412,Air,3
 Node,200,NODE 933,Air,3
 Node,201,NODE 29,Air,3
 Node,202,NODE 30,Air,3
 Node,203,NODE 782,Air,3
 Node,204,NODE 27,Air,3
 Node,205,NODE 781,Air,3
 Node,206,NODE 71,Air,3
 Node,207,NODE 72,Air,3
 Node,208,NODE 796,Air,3
 Node,209,NODE 69,Air,3
 Node,210,NODE 795,Air,3
 Node,211,NODE 155,Air,3
 Node,212,NODE 156,Air,3
 Node,213,NODE 824,Air,3
 Node,214,NODE 153,Air,3
 Node,215,NODE 823,Air,3
 Node,216,NODE 167,Air,3
 Node,217,NODE 168,Air,3
 Node,218,NODE 828,Air,3
 Node,219,NODE 165,Air,3
 Node,220,NODE 827,Air,3
 Node,221,NODE 239,Air,3
 Node,222,NODE 240,Air,3
 Node,223,NODE 852,Air,3
 Node,224,NODE 237,Air,3
 Node,225,NODE 851,Air,3
 Node,226,NODE 361,Air,3
 Node,227,NODE 362,Air,3
 Node,228,NODE 908,Air,3
 Node,229,NODE 360,Air,3
 Node,230,NODE 907,Air,3
 Node,231,NODE 373,Air,3
 Node,232,NODE 374,Air,3
 Node,233,NODE 914,Air,3
 Node,234,NODE 372,Air,3
 Node,235,NODE 913,Air,3
 Node,236,NODE 389,Air,3
 Node,237,NODE 390,Air,3
 Node,238,NODE 922,Air,3
 Node,239,NODE 388,Air,3
 Node,240,NODE 921,Air,3
 Node,241,NODE 23,Air,3
 Node,242,NODE 24,Air,3
 Node,243,NODE 780,Air,3
 Node,244,NODE 21,Air,3
 Node,245,NODE 779,Air,3
 Node,246,NODE 77,Air,3
 Node,247,NODE 78,Air,3
 Node,248,NODE 798,Air,3
 Node,249,NODE 75,Air,3
 Node,250,NODE 797,Air,3
 Node,251,NODE 185,Air,3
 Node,252,NODE 186,Air,3
 Node,253,NODE 834,Air,3
 Node,254,NODE 183,Air,3
 Node,255,NODE 833,Air,3
 Node,256,NODE 191,Air,3
 Node,257,NODE 192,Air,3
 Node,258,NODE 836,Air,3
 Node,259,NODE 189,Air,3
 Node,260,NODE 835,Air,3
 Node,261,NODE 209,Air,3
 Node,262,NODE 210,Air,3
 Node,263,NODE 842,Air,3
 Node,264,NODE 207,Air,3
 Node,265,NODE 841,Air,3
 Node,266,NODE 297,Air,3
 Node,267,NODE 298,Air,3
 Node,268,NODE 876,Air,3
 Node,269,NODE 296,Air,3
 Node,270,NODE 875,Air,3
 Node,271,NODE 301,Air,3
 Node,272,NODE 302,Air,3
 Node,273,NODE 878,Air,3
 Node,274,NODE 300,Air,3
 Node,275,NODE 877,Air,3
 Node,276,NODE 377,Air,3
 Node,277,NODE 378,Air,3
 Node,278,NODE 916,Air,3
 Node,279,NODE 376,Air,3
 Node,280,NODE 915,Air,3
 Node,281,NODE 137,Air,3
 Node,282,NODE 138,Air,3
 Node,283,NODE 818,Air,3
 Node,284,NODE 135,Air,3
 Node,285,NODE 817,Air,3
 Node,286,NODE 179,Air,3
 Node,287,NODE 180,Air,3
 Node,288,NODE 832,Air,3
 Node,289,NODE 177,Air,3
 Node,290,NODE 831,Air,3
 Node,291,NODE 333,Air,3
 Node,292,NODE 334,Air,3
 Node,293,NODE 894,Air,3
 Node,294,NODE 332,Air,3
 Node,295,NODE 893,Air,3
 Node,296,NODE 345,Air,3
 Node,297,NODE 346,Air,3
 Node,298,NODE 900,Air,3
 Node,299,NODE 344,Air,3
 Node,300,NODE 899,Air,3
 Node,301,NODE 349,Air,3
 Node,302,NODE 350,Air,3
 Node,303,NODE 902,Air,3
 Node,304,NODE 348,Air,3
 Node,305,NODE 901,Air,3
 Node,306,NODE 381,Air,3
 Node,307,NODE 382,Air,3
 Node,308,NODE 918,Air,3
 Node,309,NODE 380,Air,3
 Node,310,NODE 917,Air,3
 Node,311,NODE 401,Air,3
 Node,312,NODE 402,Air,3
 Node,313,NODE 928,Air,3
 Node,314,NODE 400,Air,3
 Node,315,NODE 927,Air,3
 Node,316,NODE 409,Air,3
 Node,317,NODE 410,Air,3
 Node,318,NODE 932,Air,3
 Node,319,NODE 408,Air,3
 Node,320,NODE 931,Air,3
 Node,321,NODE 47,Air,3
 Node,322,NODE 48,Air,3
 Node,323,NODE 788,Air,3
 Node,324,NODE 45,Air,3
 Node,325,NODE 787,Air,3
 Node,326,NODE 83,Air,3
 Node,327,NODE 84,Air,3
 Node,328,NODE 800,Air,3
 Node,329,NODE 81,Air,3
 Node,330,NODE 799,Air,3
 Node,331,NODE 131,Air,3
 Node,332,NODE 132,Air,3
 Node,333,NODE 816,Air,3
 Node,334,NODE 129,Air,3
 Node,335,NODE 815,Air,3
 Node,336,NODE 149,Air,3
 Node,337,NODE 150,Air,3
 Node,338,NODE 822,Air,3
 Node,339,NODE 147,Air,3
 Node,340,NODE 821,Air,3
 Node,341,NODE 263,Air,3
 Node,342,NODE 264,Air,3
 Node,343,NODE 860,Air,3
 Node,344,NODE 261,Air,3
 Node,345,NODE 859,Air,3
 Node,346,NODE 289,Air,3
 Node,347,NODE 290,Air,3
 Node,348,NODE 872,Air,3
 Node,349,NODE 288,Air,3
 Node,350,NODE 871,Air,3
 Node,351,NODE 329,Air,3
 Node,352,NODE 330,Air,3
 Node,353,NODE 892,Air,3
 Node,354,NODE 328,Air,3
 Node,355,NODE 891,Air,3
 Node,356,NODE 357,Air,3
 Node,357,NODE 358,Air,3
 Node,358,NODE 906,Air,3
 Node,359,NODE 356,Air,3
 Node,360,NODE 905,Air,3
 Node,361,NODE 119,Air,3
 Node,362,NODE 120,Air,3
 Node,363,NODE 812,Air,3
 Node,364,NODE 117,Air,3
 Node,365,NODE 811,Air,3
 Node,366,NODE 125,Air,3
 Node,367,NODE 126,Air,3
 Node,368,NODE 814,Air,3
 Node,369,NODE 123,Air,3
 Node,370,NODE 813,Air,3
 Node,371,NODE 143,Air,3
 Node,372,NODE 144,Air,3
 Node,373,NODE 820,Air,3
 Node,374,NODE 141,Air,3
 Node,375,NODE 819,Air,3
 Node,376,NODE 197,Air,3
 Node,377,NODE 198,Air,3
 Node,378,NODE 838,Air,3
 Node,379,NODE 195,Air,3
 Node,380,NODE 837,Air,3
 Node,381,NODE 215,Air,3
 Node,382,NODE 216,Air,3
 Node,383,NODE 844,Air,3
 Node,384,NODE 213,Air,3
 Node,385,NODE 843,Air,3
 Node,386,NODE 221,Air,3
 Node,387,NODE 222,Air,3
 Node,388,NODE 846,Air,3
 Node,389,NODE 219,Air,3
 Node,390,NODE 845,Air,3
 Node,391,NODE 227,Air,3
 Node,392,NODE 228,Air,3
 Node,393,NODE 848,Air,3
 Node,394,NODE 225,Air,3
 Node,395,NODE 847,Air,3
 Node,396,NODE 309,Air,3
 Node,397,NODE 310,Air,3
 Node,398,NODE 882,Air,3
 Node,399,NODE 308,Air,3
 Node,400,NODE 881,Air,3
 Node,401,NODE 420,Air,3
 Node,402,NODE 758,Air,3
 Node,403,NODE 757,Air,3
 Node,404,NODE 433,Air,3
 Node,405,NODE 766,Air,3
 Node,406,NODE 765,Air,3
 Node,407,NODE 435,Air,3
 Node,408,NODE 768,Air,3
 Node,409,NODE 767,Air,3
 Node,410,NODE 441,Air,3
 Node,411,NODE 774,Air,3
 Node,412,NODE 773,Air,3
 Node,413,NODE 431,Air,3
 Node,414,NODE 764,Air,3
 Node,415,NODE 763,Air,3
 Node,416,NODE 439,Air,3
 Node,417,NODE 772,Air,3
 Node,418,NODE 771,Air,3
 Node,419,NODE 443,Air,3
 Node,420,NODE 776,Air,3
 Node,421,NODE 775,Air,3
 Node,422,NODE 437,Air,3
 Node,423,NODE 770,Air,3
 Node,424,NODE 769,Air,3
 Node,425,NODE 429,Air,3
 Node,426,NODE 762,Air,3
 Node,427,NODE 761,Air,3
 Node,428,NODE 427,Air,3
 Node,429,NODE 760,Air,3
 Node,430,NODE 759,Air,3
 Node,431,NODE 3,Air,11
 Node,432,NODE 5,Air,3
 Node,433,NODE 417,Air,11
 Node,434,NODE 418,Air,3
 Node,435,NODE 473,Air,13
 Node,436,NODE 474,Air,3
 Node,437,NODE 2,Air,4
 Node,438,NODE 15,Air,8
 Node,439,NODE 14,Air,6
 Node,440,NODE 675,Air,7
 Node,441,NODE 416,Air,3
 Node,442,NODE 425,Air,6
 Node,443,NODE 424,Air,6
 Node,444,NODE 664,Air,7
 Node,445,NODE 472,Air,2
 Node,446,NODE 483,Air,5
 Node,447,NODE 482,Air,5
 Node,448,NODE 481,Air,5
 Node,449,NODE 480,Air,8
 Node,450,NODE 445,Water,2
 Node,451,NODE 451,Water,1
 Node,452,NODE 447,Water,1
 Node,453,NODE 452,Water,1
 Node,454,NODE 453,Water,1
 Node,455,NODE 454,Water,1
 Node,456,NODE 455,Water,1
 Node,457,NODE 456,Water,1
 Node,458,NODE 457,Water,1
 Node,459,NODE 446,Water,4
 Node,460,NODE 448,Water,2
 Node,461,CHILLED WATER LOOP DEMAND INLET PIPE NODE,Water,1
 Node,462,NODE 450,Water,2
 Node,463,NODE 477,Water,1
 Node,464,CHILLED WATER LOOP DEMAND BYPASS PIPE INLET NODE,Water,1
 Node,465,CHILLED WATER LOOP DEMAND BYPASS PIPE OUTLET NODE,Water,1
 Node,466,CHILLED WATER LOOP DEMAND OUTLET PIPE NODE,Water,1
 Node,467,NODE 449,Water,2
 Node,468,NODE 458,Water,2
 Node,469,NODE 464,Water,1
 Node,470,NODE 460,Water,1
 Node,471,NODE 465,Water,1
 Node,472,NODE 466,Water,1
 Node,473,NODE 467,Water,1
 Node,474,NODE 468,Water,1
 Node,475,NODE 459,Water,4
 Node,476,NODE 461,Water,2
 Node,477,CONDENSER WATER LOOP DEMAND INLET PIPE NODE,Water,1
 Node,478,NODE 463,Water,1
 Node,479,NODE 469,Water,1
 Node,480,NODE 470,Water,1
 Node,481,NODE 471,Water,1
 Node,482,CONDENSER WATER LOOP DEMAND BYPASS PIPE INLET NODE,Water,1
 Node,483,CONDENSER WATER LOOP DEMAND BYPASS PIPE OUTLET NODE,Water,1
 Node,484,CONDENSER WATER LOOP DEMAND OUTLET PIPE NODE,Water,1
 Node,485,NODE 462,Water,2
 Node,486,NODE 486,Water,2
 Node,487,NODE 492,Water,1
 Node,488,NODE 488,Water,2
 Node,489,NODE 493,Water,2
 Node,490,NODE 494,Water,1
 Node,491,NODE 495,Water,1
 Node,492,NODE 497,Water,1
 Node,493,NODE 487,Water,4
 Node,494,NODE 489,Water,2
 Node,495,NODE 498,Water,1
 Node,496,NODE 491,Water,1
 Node,497,NODE 496,Water,1
 Node,498,NODE 500,Water,1
 Node,499,NODE 501,Water,1
 Node,500,NODE 502,Water,1
 Node,501,NODE 503,Water,1
 Node,502,NODE 504,Water,1
 Node,503,NODE 505,Water,1
 Node,504,NODE 506,Water,1
 Node,505,NODE 507,Water,1
 Node,506,NODE 508,Water,1
 Node,507,NODE 509,Water,1
 Node,508,NODE 510,Water,1
 Node,509,NODE 511,Water,1
 Node,510,NODE 512,Water,1
 Node,511,NODE 513,Water,1
 Node,512,NODE 514,Water,1
 Node,513,NODE 515,Water,1
 Node,514,NODE 516,Water,1
 Node,515,NODE 517,Water,1
 Node,516,NODE 518,Water,1
 Node,517,NODE 519,Water,1
 Node,518,NODE 520,Water,1
 Node,519,NODE 521,Water,1
 Node,520,NODE 522,Water,1
 Node,521,NODE 523,Water,1
 Node,522,NODE 524,Water,1
 Node,523,NODE 525,Water,1
 Node,524,NODE 526,Water,1
 Node,525,NODE 527,Water,1
 Node,526,NODE 528,Water,1
 Node,527,NODE 529,Water,1
 Node,528,NODE 530,Water,1
 Node,529,NODE 531,Water,1
 Node,530,NODE 532,Water,1
 Node,531,NODE 533,Water,1
 Node,532,NODE 534,Water,1
 Node,533,NODE 535,Water,1
 Node,534,NODE 536,Water,1
 Node,535,NODE 537,Water,1
 Node,536,NODE 538,Water,1
 Node,537,NODE 539,Water,1
 Node,538,NODE 540,Water,1
 Node,539,NODE 541,Water,1
 Node,540,NODE 542,Water,1
 Node,541,NODE 543,Water,1
 Node,542,NODE 544,Water,1
 Node,543,NODE 545,Water,1
 Node,544,NODE 546,Water,1
 Node,545,NODE 547,Water,1
 Node,546,NODE 548,Water,1
 Node,547,NODE 549,Water,1
 Node,548,NODE 550,Water,1
 Node,549,NODE 551,Water,1
 Node,550,NODE 552,Water,1
 Node,551,NODE 553,Water,1
 Node,552,NODE 554,Water,1
 Node,553,NODE 555,Water,1
 Node,554,NODE 556,Water,1
 Node,555,NODE 557,Water,1
 Node,556,NODE 558,Water,1
 Node,557,NODE 559,Water,1
 Node,558,NODE 560,Water,1
 Node,559,NODE 561,Water,1
 Node,560,NODE 562,Water,1
 Node,561,NODE 563,Water,1
 Node,562,NODE 564,Water,1
 Node,563,NODE 565,Water,1
 Node,564,NODE 566,Water,1
 Node,565,NODE 567,Water,1
 Node,566,NODE 568,Water,1
 Node,567,NODE 569,Water,1
 Node,568,NODE 570,Water,1
 Node,569,NODE 571,Water,1
 Node,570,NODE 572,Water,1
 Node,571,NODE 573,Water,1
 Node,572,NODE 574,Water,1
 Node,573,NODE 575,Water,1
 Node,574,NODE 576,Water,1
 Node,575,NODE 577,Water,1
 Node,576,NODE 578,Water,1
 Node,577,NODE 579,Water,1
 Node,578,NODE 580,Water,1
 Node,579,NODE 581,Water,1
 Node,580,NODE 582,Water,1
 Node,581,NODE 583,Water,1
 Node,582,NODE 584,Water,1
 Node,583,NODE 585,Water,1
 Node,584,NODE 586,Water,1
 Node,585,NODE 587,Water,1
 Node,586,NODE 588,Water,1
 Node,587,NODE 589,Water,1
 Node,588,NODE 590,Water,1
 Node,589,NODE 591,Water,1
 Node,590,NODE 592,Water,1
 Node,591,NODE 593,Water,1
 Node,592,NODE 594,Water,1
 Node,593,NODE 595,Water,1
 Node,594,NODE 596,Water,1
 Node,595,NODE 597,Water,1
 Node,596,NODE 598,Water,1
 Node,597,NODE 599,Water,1
 Node,598,NODE 600,Water,1
 Node,599,NODE 601,Water,1
 Node,600,NODE 602,Water,1
 Node,601,NODE 603,Water,1
 Node,602,NODE 604,Water,1
 Node,603,NODE 605,Water,1
 Node,604,NODE 606,Water,1
 Node,605,NODE 607,Water,1
 Node,606,NODE 608,Water,1
 Node,607,NODE 609,Water,1
 Node,608,NODE 610,Water,1
 Node,609,NODE 611,Water,1
 Node,610,NODE 612,Water,1
 Node,611,NODE 613,Water,1
 Node,612,NODE 614,Water,1
 Node,613,NODE 615,Water,1
 Node,614,NODE 616,Water,1
 Node,615,NODE 617,Water,1
 Node,616,NODE 618,Water,1
 Node,617,NODE 619,Water,1
 Node,618,NODE 620,Water,1
 Node,619,NODE 621,Water,1
 Node,620,NODE 622,Water,1
 Node,621,NODE 623,Water,1
 Node,622,NODE 624,Water,1
 Node,623,NODE 625,Water,1
 Node,624,NODE 626,Water,1
 Node,625,NODE 627,Water,1
 Node,626,NODE 628,Water,1
 Node,627,NODE 629,Water,1
 Node,628,NODE 630,Water,1
 Node,629,NODE 631,Water,1
 Node,630,NODE 632,Water,1
 Node,631,NODE 633,Water,1
 Node,632,NODE 634,Water,1
 Node,633,NODE 635,Water,1
 Node,634,NODE 636,Water,1
 Node,635,NODE 637,Water,1
 Node,636,NODE 638,Water,1
 Node,637,NODE 639,Water,1
 Node,638,NODE 640,Water,1
 Node,639,NODE 641,Water,1
 Node,640,NODE 642,Water,1
 Node,641,NODE 643,Water,1
 Node,642,NODE 644,Water,1
 Node,643,NODE 645,Water,1
 Node,644,NODE 646,Water,1
 Node,645,NODE 647,Water,1
 Node,646,NODE 648,Water,1
 Node,647,NODE 649,Water,1
 Node,648,NODE 650,Water,1
 Node,649,NODE 651,Water,1
 Node,650,NODE 652,Water,1
 Node,651,NODE 653,Water,1
 Node,652,NODE 654,Water,1
 Node,653,NODE 655,Water,1
 Node,654,NODE 656,Water,1
 Node,655,NODE 657,Water,1
 Node,656,NODE 658,Water,1
 Node,657,NODE 659,Water,1
 Node,658,MAIN SERVICE WATER LOOP DEMAND BYPASS PIPE INLET NODE,Water,1
 Node,659,MAIN SERVICE WATER LOOP DEMAND BYPASS PIPE OUTLET NODE,Water,1
 Node,660,NODE 499,Water,1
 Node,661,NODE 490,Water,2
 Node,662,NODE 238,Air,0
 Node,663,NODE 484,Air,1
 Node,664,NODE 19,Air,0
 Node,665,NODE 56,Air,1
 Node,666,NODE 40,Air,0
 Node,667,NODE 98,Air,1
 Node,668,NODE 49,Air,0
 Node,669,NODE 116,Air,1
 Node,670,NODE 94,Air,0
 Node,671,NODE 206,Air,1
 Node,672,NODE 118,Air,0
 Node,673,NODE 254,Air,1
 Node,674,NODE 154,Air,0
 Node,675,NODE 307,Air,1
 Node,676,NODE 160,Air,0
 Node,677,NODE 315,Air,1
 Node,678,NODE 178,Air,0
 Node,679,NODE 339,Air,1
 Node,680,NODE 1,Air,0
 Node,681,NODE 20,Air,1
 Node,682,NODE 25,Air,0
 Node,683,NODE 68,Air,1
 Node,684,NODE 79,Air,0
 Node,685,NODE 176,Air,1
 Node,686,NODE 127,Air,0
 Node,687,NODE 271,Air,1
 Node,688,NODE 130,Air,0
 Node,689,NODE 275,Air,1
 Node,690,NODE 139,Air,0
 Node,691,NODE 287,Air,1
 Node,692,NODE 181,Air,0
 Node,693,NODE 343,Air,1
 Node,694,NODE 13,Air,0
 Node,695,NODE 44,Air,1
 Node,696,NODE 43,Air,0
 Node,697,NODE 104,Air,1
 Node,698,NODE 121,Air,0
 Node,699,NODE 260,Air,1
 Node,700,NODE 136,Air,0
 Node,701,NODE 283,Air,1
 Node,702,NODE 145,Air,0
 Node,703,NODE 295,Air,1
 Node,704,NODE 166,Air,0
 Node,705,NODE 323,Air,1
 Node,706,NODE 214,Air,0
 Node,707,NODE 387,Air,1
 Node,708,NODE 220,Air,0
 Node,709,NODE 395,Air,1
 Node,710,NODE 10,Air,0
 Node,711,NODE 38,Air,1
 Node,712,NODE 37,Air,0
 Node,713,NODE 92,Air,1
 Node,714,NODE 46,Air,0
 Node,715,NODE 110,Air,1
 Node,716,NODE 133,Air,0
 Node,717,NODE 279,Air,1
 Node,718,NODE 163,Air,0
 Node,719,NODE 319,Air,1
 Node,720,NODE 169,Air,0
 Node,721,NODE 327,Air,1
 Node,722,NODE 190,Air,0
 Node,723,NODE 355,Air,1
 Node,724,NODE 229,Air,0
 Node,725,NODE 407,Air,1
 Node,726,NODE 22,Air,0
 Node,727,NODE 62,Air,1
 Node,728,NODE 73,Air,0
 Node,729,NODE 164,Air,1
 Node,730,NODE 109,Air,0
 Node,731,NODE 236,Air,1
 Node,732,NODE 115,Air,0
 Node,733,NODE 248,Air,1
 Node,734,NODE 199,Air,0
 Node,735,NODE 367,Air,1
 Node,736,NODE 202,Air,0
 Node,737,NODE 371,Air,1
 Node,738,NODE 223,Air,0
 Node,739,NODE 399,Air,1
 Node,740,NODE 235,Air,0
 Node,741,NODE 415,Air,1
 Node,742,NODE 7,Air,0
 Node,743,NODE 32,Air,1
 Node,744,NODE 28,Air,0
 Node,745,NODE 74,Air,1
 Node,746,NODE 70,Air,0
 Node,747,NODE 158,Air,1
 Node,748,NODE 76,Air,0
 Node,749,NODE 170,Air,1
 Node,750,NODE 112,Air,0
 Node,751,NODE 242,Air,1
 Node,752,NODE 196,Air,0
 Node,753,NODE 363,Air,1
 Node,754,NODE 205,Air,0
 Node,755,NODE 375,Air,1
 Node,756,NODE 217,Air,0
 Node,757,NODE 391,Air,1
 Node,758,NODE 4,Air,0
 Node,759,NODE 26,Air,1
 Node,760,NODE 31,Air,0
 Node,761,NODE 80,Air,1
 Node,762,NODE 85,Air,0
 Node,763,NODE 188,Air,1
 Node,764,NODE 88,Air,0
 Node,765,NODE 194,Air,1
 Node,766,NODE 97,Air,0
 Node,767,NODE 212,Air,1
 Node,768,NODE 148,Air,0
 Node,769,NODE 299,Air,1
 Node,770,NODE 151,Air,0
 Node,771,NODE 303,Air,1
 Node,772,NODE 208,Air,0
 Node,773,NODE 379,Air,1
 Node,774,NODE 61,Air,0
 Node,775,NODE 140,Air,1
 Node,776,NODE 82,Air,0
 Node,777,NODE 182,Air,1
 Node,778,NODE 175,Air,0
 Node,779,NODE 335,Air,1
 Node,780,NODE 184,Air,0
 Node,781,NODE 347,Air,1
 Node,782,NODE 187,Air,0
 Node,783,NODE 351,Air,1
 Node,784,NODE 211,Air,0
 Node,785,NODE 383,Air,1
 Node,786,NODE 226,Air,0
 Node,787,NODE 403,Air,1
 Node,788,NODE 232,Air,0
 Node,789,NODE 411,Air,1
 Node,790,NODE 16,Air,0
 Node,791,NODE 50,Air,1
 Node,792,NODE 34,Air,0
 Node,793,NODE 86,Air,1
 Node,794,NODE 58,Air,0
 Node,795,NODE 134,Air,1
 Node,796,NODE 67,Air,0
 Node,797,NODE 152,Air,1
 Node,798,NODE 124,Air,0
 Node,799,NODE 266,Air,1
 Node,800,NODE 142,Air,0
 Node,801,NODE 291,Air,1
 Node,802,NODE 172,Air,0
 Node,803,NODE 331,Air,1
 Node,804,NODE 193,Air,0
 Node,805,NODE 359,Air,1
 Node,806,NODE 52,Air,0
 Node,807,NODE 122,Air,1
 Node,808,NODE 55,Air,0
 Node,809,NODE 128,Air,1
 Node,810,NODE 64,Air,0
 Node,811,NODE 146,Air,1
 Node,812,NODE 91,Air,0
 Node,813,NODE 200,Air,1
 Node,814,NODE 100,Air,0
 Node,815,NODE 218,Air,1
 Node,816,NODE 103,Air,0
 Node,817,NODE 224,Air,1
 Node,818,NODE 106,Air,0
 Node,819,NODE 230,Air,1
 Node,820,NODE 157,Air,0
 Node,821,NODE 311,Air,1
 Node,822,NODE 241,Air,0
 Node,823,NODE 426,Air,1
 Node,824,NODE 253,Air,0
 Node,825,NODE 434,Air,1
 Node,826,NODE 256,Air,0
 Node,827,NODE 436,Air,1
 Node,828,NODE 265,Air,0
 Node,829,NODE 442,Air,1
 Node,830,NODE 250,Air,0
 Node,831,NODE 432,Air,1
 Node,832,NODE 262,Air,0
 Node,833,NODE 440,Air,1
 Node,834,NODE 268,Air,0
 Node,835,NODE 444,Air,1
 Node,836,NODE 259,Air,0
 Node,837,NODE 438,Air,1
 Node,838,NODE 247,Air,0
 Node,839,NODE 430,Air,1
 Node,840,NODE 244,Air,0
 Node,841,NODE 428,Air,1
 Node,842,NODE 6,Air,2
 Node,843,NODE 419,Air,2
 Node,844,NODE 475,Air,2
 Node,845,704GAL ELECTRICITY WATER HEATER - 475KBTU/HR 1.0 THERM EFF ASHPWH TANK OUTLET - CONDENSER INLET,Water,2
 Node,846,704GAL ELECTRICITY WATER HEATER - 475KBTU/HR 1.0 THERM EFF ASHPWH CONDENSER OUTLET - TANK INLET,Water,2
 Node,847,DU_BT=SPACE FUNCTION_ST=DWELLING UNITS GENERAL_FL=BUILDING STORY 10_SCHG PTAC MIXED AIR NODE,Air,1
 Node,848,DU_BT=SPACE FUNCTION_ST=DWELLING UNITS GENERAL_FL=BUILDING STORY 10_SCHG PTAC COOLING COIL OUTLET NODE,Air,1
 Node,849,DU_BT=SPACE FUNCTION_ST=DWELLING UNITS GENERAL_FL=BUILDING STORY 10_SCHG 1 PTAC MIXED AIR NODE,Air,1
 Node,850,DU_BT=SPACE FUNCTION_ST=DWELLING UNITS GENERAL_FL=BUILDING STORY 10_SCHG 1 PTAC COOLING COIL OUTLET NODE,Air,1
 Node,851,DU_BT=SPACE FUNCTION_ST=DWELLING UNITS GENERAL_FL=BUILDING STORY 10_SCHG 2 PTAC MIXED AIR NODE,Air,1
 Node,852,DU_BT=SPACE FUNCTION_ST=DWELLING UNITS GENERAL_FL=BUILDING STORY 10_SCHG 2 PTAC COOLING COIL OUTLET NODE,Air,1
 Node,853,DU_BT=SPACE FUNCTION_ST=DWELLING UNITS GENERAL_FL=BUILDING STORY 10_SCHG 3 PTAC MIXED AIR NODE,Air,1
 Node,854,DU_BT=SPACE FUNCTION_ST=DWELLING UNITS GENERAL_FL=BUILDING STORY 10_SCHG 3 PTAC COOLING COIL OUTLET NODE,Air,1
 Node,855,DU_BT=SPACE FUNCTION_ST=DWELLING UNITS GENERAL_FL=BUILDING STORY 10_SCHG 4 PTAC MIXED AIR NODE,Air,1
 Node,856,DU_BT=SPACE FUNCTION_ST=DWELLING UNITS GENERAL_FL=BUILDING STORY 10_SCHG 4 PTAC COOLING COIL OUTLET NODE,Air,1
 Node,857,DU_BT=SPACE FUNCTION_ST=DWELLING UNITS GENERAL_FL=BUILDING STORY 10_SCHG 5 PTAC MIXED AIR NODE,Air,1
 Node,858,DU_BT=SPACE FUNCTION_ST=DWELLING UNITS GENERAL_FL=BUILDING STORY 10_SCHG 5 PTAC COOLING COIL OUTLET NODE,Air,1
 Node,859,DU_BT=SPACE FUNCTION_ST=DWELLING UNITS GENERAL_FL=BUILDING STORY 10_SCHG 6 PTAC MIXED AIR NODE,Air,1
 Node,860,DU_BT=SPACE FUNCTION_ST=DWELLING UNITS GENERAL_FL=BUILDING STORY 10_SCHG 6 PTAC COOLING COIL OUTLET NODE,Air,1
 Node,861,DU_BT=SPACE FUNCTION_ST=DWELLING UNITS GENERAL_FL=BUILDING STORY 10_SCHG 7 PTAC MIXED AIR NODE,Air,1
 Node,862,DU_BT=SPACE FUNCTION_ST=DWELLING UNITS GENERAL_FL=BUILDING STORY 10_SCHG 7 PTAC COOLING COIL OUTLET NODE,Air,1
 Node,863,DU_BT=SPACE FUNCTION_ST=DWELLING UNITS GENERAL_FL=BUILDING STORY 1_SCHG PTAC MIXED AIR NODE,Air,1
 Node,864,DU_BT=SPACE FUNCTION_ST=DWELLING UNITS GENERAL_FL=BUILDING STORY 1_SCHG PTAC COOLING COIL OUTLET NODE,Air,1
 Node,865,DU_BT=SPACE FUNCTION_ST=DWELLING UNITS GENERAL_FL=BUILDING STORY 1_SCHG 1 PTAC MIXED AIR NODE,Air,1
 Node,866,DU_BT=SPACE FUNCTION_ST=DWELLING UNITS GENERAL_FL=BUILDING STORY 1_SCHG 1 PTAC COOLING COIL OUTLET NODE,Air,1
 Node,867,DU_BT=SPACE FUNCTION_ST=DWELLING UNITS GENERAL_FL=BUILDING STORY 1_SCHG 2 PTAC MIXED AIR NODE,Air,1
 Node,868,DU_BT=SPACE FUNCTION_ST=DWELLING UNITS GENERAL_FL=BUILDING STORY 1_SCHG 2 PTAC COOLING COIL OUTLET NODE,Air,1
 Node,869,DU_BT=SPACE FUNCTION_ST=DWELLING UNITS GENERAL_FL=BUILDING STORY 1_SCHG 3 PTAC MIXED AIR NODE,Air,1
 Node,870,DU_BT=SPACE FUNCTION_ST=DWELLING UNITS GENERAL_FL=BUILDING STORY 1_SCHG 3 PTAC COOLING COIL OUTLET NODE,Air,1
 Node,871,DU_BT=SPACE FUNCTION_ST=DWELLING UNITS GENERAL_FL=BUILDING STORY 1_SCHG 4 PTAC MIXED AIR NODE,Air,1
 Node,872,DU_BT=SPACE FUNCTION_ST=DWELLING UNITS GENERAL_FL=BUILDING STORY 1_SCHG 4 PTAC COOLING COIL OUTLET NODE,Air,1
 Node,873,DU_BT=SPACE FUNCTION_ST=DWELLING UNITS GENERAL_FL=BUILDING STORY 1_SCHG 5 PTAC MIXED AIR NODE,Air,1
 Node,874,DU_BT=SPACE FUNCTION_ST=DWELLING UNITS GENERAL_FL=BUILDING STORY 1_SCHG 5 PTAC COOLING COIL OUTLET NODE,Air,1
 Node,875,DU_BT=SPACE FUNCTION_ST=DWELLING UNITS GENERAL_FL=BUILDING STORY 1_SCHG 6 PTAC MIXED AIR NODE,Air,1
 Node,876,DU_BT=SPACE FUNCTION_ST=DWELLING UNITS GENERAL_FL=BUILDING STORY 1_SCHG 6 PTAC COOLING COIL OUTLET NODE,Air,1
 Node,877,DU_BT=SPACE FUNCTION_ST=DWELLING UNITS GENERAL_FL=BUILDING STORY 2_SCHG PTAC MIXED AIR NODE,Air,1
 Node,878,DU_BT=SPACE FUNCTION_ST=DWELLING UNITS GENERAL_FL=BUILDING STORY 2_SCHG PTAC COOLING COIL OUTLET NODE,Air,1
 Node,879,DU_BT=SPACE FUNCTION_ST=DWELLING UNITS GENERAL_FL=BUILDING STORY 2_SCHG 1 PTAC MIXED AIR NODE,Air,1
 Node,880,DU_BT=SPACE FUNCTION_ST=DWELLING UNITS GENERAL_FL=BUILDING STORY 2_SCHG 1 PTAC COOLING COIL OUTLET NODE,Air,1
 Node,881,DU_BT=SPACE FUNCTION_ST=DWELLING UNITS GENERAL_FL=BUILDING STORY 2_SCHG 2 PTAC MIXED AIR NODE,Air,1
 Node,882,DU_BT=SPACE FUNCTION_ST=DWELLING UNITS GENERAL_FL=BUILDING STORY 2_SCHG 2 PTAC COOLING COIL OUTLET NODE,Air,1
 Node,883,DU_BT=SPACE FUNCTION_ST=DWELLING UNITS GENERAL_FL=BUILDING STORY 2_SCHG 3 PTAC MIXED AIR NODE,Air,1
 Node,884,DU_BT=SPACE FUNCTION_ST=DWELLING UNITS GENERAL_FL=BUILDING STORY 2_SCHG 3 PTAC COOLING COIL OUTLET NODE,Air,1
 Node,885,DU_BT=SPACE FUNCTION_ST=DWELLING UNITS GENERAL_FL=BUILDING STORY 2_SCHG 4 PTAC MIXED AIR NODE,Air,1
 Node,886,DU_BT=SPACE FUNCTION_ST=DWELLING UNITS GENERAL_FL=BUILDING STORY 2_SCHG 4 PTAC COOLING COIL OUTLET NODE,Air,1
 Node,887,DU_BT=SPACE FUNCTION_ST=DWELLING UNITS GENERAL_FL=BUILDING STORY 2_SCHG 5 PTAC MIXED AIR NODE,Air,1
 Node,888,DU_BT=SPACE FUNCTION_ST=DWELLING UNITS GENERAL_FL=BUILDING STORY 2_SCHG 5 PTAC COOLING COIL OUTLET NODE,Air,1
 Node,889,DU_BT=SPACE FUNCTION_ST=DWELLING UNITS GENERAL_FL=BUILDING STORY 2_SCHG 6 PTAC MIXED AIR NODE,Air,1
 Node,890,DU_BT=SPACE FUNCTION_ST=DWELLING UNITS GENERAL_FL=BUILDING STORY 2_SCHG 6 PTAC COOLING COIL OUTLET NODE,Air,1
 Node,891,DU_BT=SPACE FUNCTION_ST=DWELLING UNITS GENERAL_FL=BUILDING STORY 2_SCHG 7 PTAC MIXED AIR NODE,Air,1
 Node,892,DU_BT=SPACE FUNCTION_ST=DWELLING UNITS GENERAL_FL=BUILDING STORY 2_SCHG 7 PTAC COOLING COIL OUTLET NODE,Air,1
 Node,893,DU_BT=SPACE FUNCTION_ST=DWELLING UNITS GENERAL_FL=BUILDING STORY 3_SCHG PTAC MIXED AIR NODE,Air,1
 Node,894,DU_BT=SPACE FUNCTION_ST=DWELLING UNITS GENERAL_FL=BUILDING STORY 3_SCHG PTAC COOLING COIL OUTLET NODE,Air,1
 Node,895,DU_BT=SPACE FUNCTION_ST=DWELLING UNITS GENERAL_FL=BUILDING STORY 3_SCHG 1 PTAC MIXED AIR NODE,Air,1
 Node,896,DU_BT=SPACE FUNCTION_ST=DWELLING UNITS GENERAL_FL=BUILDING STORY 3_SCHG 1 PTAC COOLING COIL OUTLET NODE,Air,1
 Node,897,DU_BT=SPACE FUNCTION_ST=DWELLING UNITS GENERAL_FL=BUILDING STORY 3_SCHG 2 PTAC MIXED AIR NODE,Air,1
 Node,898,DU_BT=SPACE FUNCTION_ST=DWELLING UNITS GENERAL_FL=BUILDING STORY 3_SCHG 2 PTAC COOLING COIL OUTLET NODE,Air,1
 Node,899,DU_BT=SPACE FUNCTION_ST=DWELLING UNITS GENERAL_FL=BUILDING STORY 3_SCHG 3 PTAC MIXED AIR NODE,Air,1
 Node,900,DU_BT=SPACE FUNCTION_ST=DWELLING UNITS GENERAL_FL=BUILDING STORY 3_SCHG 3 PTAC COOLING COIL OUTLET NODE,Air,1
 Node,901,DU_BT=SPACE FUNCTION_ST=DWELLING UNITS GENERAL_FL=BUILDING STORY 3_SCHG 4 PTAC MIXED AIR NODE,Air,1
 Node,902,DU_BT=SPACE FUNCTION_ST=DWELLING UNITS GENERAL_FL=BUILDING STORY 3_SCHG 4 PTAC COOLING COIL OUTLET NODE,Air,1
 Node,903,DU_BT=SPACE FUNCTION_ST=DWELLING UNITS GENERAL_FL=BUILDING STORY 3_SCHG 5 PTAC MIXED AIR NODE,Air,1
 Node,904,DU_BT=SPACE FUNCTION_ST=DWELLING UNITS GENERAL_FL=BUILDING STORY 3_SCHG 5 PTAC COOLING COIL OUTLET NODE,Air,1
 Node,905,DU_BT=SPACE FUNCTION_ST=DWELLING UNITS GENERAL_FL=BUILDING STORY 3_SCHG 6 PTAC MIXED AIR NODE,Air,1
 Node,906,DU_BT=SPACE FUNCTION_ST=DWELLING UNITS GENERAL_FL=BUILDING STORY 3_SCHG 6 PTAC COOLING COIL OUTLET NODE,Air,1
 Node,907,DU_BT=SPACE FUNCTION_ST=DWELLING UNITS GENERAL_FL=BUILDING STORY 3_SCHG 7 PTAC MIXED AIR NODE,Air,1
 Node,908,DU_BT=SPACE FUNCTION_ST=DWELLING UNITS GENERAL_FL=BUILDING STORY 3_SCHG 7 PTAC COOLING COIL OUTLET NODE,Air,1
 Node,909,DU_BT=SPACE FUNCTION_ST=DWELLING UNITS GENERAL_FL=BUILDING STORY 4_SCHG PTAC MIXED AIR NODE,Air,1
 Node,910,DU_BT=SPACE FUNCTION_ST=DWELLING UNITS GENERAL_FL=BUILDING STORY 4_SCHG PTAC COOLING COIL OUTLET NODE,Air,1
 Node,911,DU_BT=SPACE FUNCTION_ST=DWELLING UNITS GENERAL_FL=BUILDING STORY 4_SCHG 1 PTAC MIXED AIR NODE,Air,1
 Node,912,DU_BT=SPACE FUNCTION_ST=DWELLING UNITS GENERAL_FL=BUILDING STORY 4_SCHG 1 PTAC COOLING COIL OUTLET NODE,Air,1
 Node,913,DU_BT=SPACE FUNCTION_ST=DWELLING UNITS GENERAL_FL=BUILDING STORY 4_SCHG 2 PTAC MIXED AIR NODE,Air,1
 Node,914,DU_BT=SPACE FUNCTION_ST=DWELLING UNITS GENERAL_FL=BUILDING STORY 4_SCHG 2 PTAC COOLING COIL OUTLET NODE,Air,1
 Node,915,DU_BT=SPACE FUNCTION_ST=DWELLING UNITS GENERAL_FL=BUILDING STORY 4_SCHG 3 PTAC MIXED AIR NODE,Air,1
 Node,916,DU_BT=SPACE FUNCTION_ST=DWELLING UNITS GENERAL_FL=BUILDING STORY 4_SCHG 3 PTAC COOLING COIL OUTLET NODE,Air,1
 Node,917,DU_BT=SPACE FUNCTION_ST=DWELLING UNITS GENERAL_FL=BUILDING STORY 4_SCHG 4 PTAC MIXED AIR NODE,Air,1
 Node,918,DU_BT=SPACE FUNCTION_ST=DWELLING UNITS GENERAL_FL=BUILDING STORY 4_SCHG 4 PTAC COOLING COIL OUTLET NODE,Air,1
 Node,919,DU_BT=SPACE FUNCTION_ST=DWELLING UNITS GENERAL_FL=BUILDING STORY 4_SCHG 5 PTAC MIXED AIR NODE,Air,1
 Node,920,DU_BT=SPACE FUNCTION_ST=DWELLING UNITS GENERAL_FL=BUILDING STORY 4_SCHG 5 PTAC COOLING COIL OUTLET NODE,Air,1
 Node,921,DU_BT=SPACE FUNCTION_ST=DWELLING UNITS GENERAL_FL=BUILDING STORY 4_SCHG 6 PTAC MIXED AIR NODE,Air,1
 Node,922,DU_BT=SPACE FUNCTION_ST=DWELLING UNITS GENERAL_FL=BUILDING STORY 4_SCHG 6 PTAC COOLING COIL OUTLET NODE,Air,1
 Node,923,DU_BT=SPACE FUNCTION_ST=DWELLING UNITS GENERAL_FL=BUILDING STORY 4_SCHG 7 PTAC MIXED AIR NODE,Air,1
 Node,924,DU_BT=SPACE FUNCTION_ST=DWELLING UNITS GENERAL_FL=BUILDING STORY 4_SCHG 7 PTAC COOLING COIL OUTLET NODE,Air,1
 Node,925,DU_BT=SPACE FUNCTION_ST=DWELLING UNITS GENERAL_FL=BUILDING STORY 5_SCHG PTAC MIXED AIR NODE,Air,1
 Node,926,DU_BT=SPACE FUNCTION_ST=DWELLING UNITS GENERAL_FL=BUILDING STORY 5_SCHG PTAC COOLING COIL OUTLET NODE,Air,1
 Node,927,DU_BT=SPACE FUNCTION_ST=DWELLING UNITS GENERAL_FL=BUILDING STORY 5_SCHG 1 PTAC MIXED AIR NODE,Air,1
 Node,928,DU_BT=SPACE FUNCTION_ST=DWELLING UNITS GENERAL_FL=BUILDING STORY 5_SCHG 1 PTAC COOLING COIL OUTLET NODE,Air,1
 Node,929,DU_BT=SPACE FUNCTION_ST=DWELLING UNITS GENERAL_FL=BUILDING STORY 5_SCHG 2 PTAC MIXED AIR NODE,Air,1
 Node,930,DU_BT=SPACE FUNCTION_ST=DWELLING UNITS GENERAL_FL=BUILDING STORY 5_SCHG 2 PTAC COOLING COIL OUTLET NODE,Air,1
 Node,931,DU_BT=SPACE FUNCTION_ST=DWELLING UNITS GENERAL_FL=BUILDING STORY 5_SCHG 3 PTAC MIXED AIR NODE,Air,1
 Node,932,DU_BT=SPACE FUNCTION_ST=DWELLING UNITS GENERAL_FL=BUILDING STORY 5_SCHG 3 PTAC COOLING COIL OUTLET NODE,Air,1
 Node,933,DU_BT=SPACE FUNCTION_ST=DWELLING UNITS GENERAL_FL=BUILDING STORY 5_SCHG 4 PTAC MIXED AIR NODE,Air,1
 Node,934,DU_BT=SPACE FUNCTION_ST=DWELLING UNITS GENERAL_FL=BUILDING STORY 5_SCHG 4 PTAC COOLING COIL OUTLET NODE,Air,1
 Node,935,DU_BT=SPACE FUNCTION_ST=DWELLING UNITS GENERAL_FL=BUILDING STORY 5_SCHG 5 PTAC MIXED AIR NODE,Air,1
 Node,936,DU_BT=SPACE FUNCTION_ST=DWELLING UNITS GENERAL_FL=BUILDING STORY 5_SCHG 5 PTAC COOLING COIL OUTLET NODE,Air,1
 Node,937,DU_BT=SPACE FUNCTION_ST=DWELLING UNITS GENERAL_FL=BUILDING STORY 5_SCHG 6 PTAC MIXED AIR NODE,Air,1
 Node,938,DU_BT=SPACE FUNCTION_ST=DWELLING UNITS GENERAL_FL=BUILDING STORY 5_SCHG 6 PTAC COOLING COIL OUTLET NODE,Air,1
 Node,939,DU_BT=SPACE FUNCTION_ST=DWELLING UNITS GENERAL_FL=BUILDING STORY 5_SCHG 7 PTAC MIXED AIR NODE,Air,1
 Node,940,DU_BT=SPACE FUNCTION_ST=DWELLING UNITS GENERAL_FL=BUILDING STORY 5_SCHG 7 PTAC COOLING COIL OUTLET NODE,Air,1
 Node,941,DU_BT=SPACE FUNCTION_ST=DWELLING UNITS GENERAL_FL=BUILDING STORY 6_SCHG PTAC MIXED AIR NODE,Air,1
 Node,942,DU_BT=SPACE FUNCTION_ST=DWELLING UNITS GENERAL_FL=BUILDING STORY 6_SCHG PTAC COOLING COIL OUTLET NODE,Air,1
 Node,943,DU_BT=SPACE FUNCTION_ST=DWELLING UNITS GENERAL_FL=BUILDING STORY 6_SCHG 1 PTAC MIXED AIR NODE,Air,1
 Node,944,DU_BT=SPACE FUNCTION_ST=DWELLING UNITS GENERAL_FL=BUILDING STORY 6_SCHG 1 PTAC COOLING COIL OUTLET NODE,Air,1
 Node,945,DU_BT=SPACE FUNCTION_ST=DWELLING UNITS GENERAL_FL=BUILDING STORY 6_SCHG 2 PTAC MIXED AIR NODE,Air,1
 Node,946,DU_BT=SPACE FUNCTION_ST=DWELLING UNITS GENERAL_FL=BUILDING STORY 6_SCHG 2 PTAC COOLING COIL OUTLET NODE,Air,1
 Node,947,DU_BT=SPACE FUNCTION_ST=DWELLING UNITS GENERAL_FL=BUILDING STORY 6_SCHG 3 PTAC MIXED AIR NODE,Air,1
 Node,948,DU_BT=SPACE FUNCTION_ST=DWELLING UNITS GENERAL_FL=BUILDING STORY 6_SCHG 3 PTAC COOLING COIL OUTLET NODE,Air,1
 Node,949,DU_BT=SPACE FUNCTION_ST=DWELLING UNITS GENERAL_FL=BUILDING STORY 6_SCHG 4 PTAC MIXED AIR NODE,Air,1
 Node,950,DU_BT=SPACE FUNCTION_ST=DWELLING UNITS GENERAL_FL=BUILDING STORY 6_SCHG 4 PTAC COOLING COIL OUTLET NODE,Air,1
 Node,951,DU_BT=SPACE FUNCTION_ST=DWELLING UNITS GENERAL_FL=BUILDING STORY 6_SCHG 5 PTAC MIXED AIR NODE,Air,1
 Node,952,DU_BT=SPACE FUNCTION_ST=DWELLING UNITS GENERAL_FL=BUILDING STORY 6_SCHG 5 PTAC COOLING COIL OUTLET NODE,Air,1
 Node,953,DU_BT=SPACE FUNCTION_ST=DWELLING UNITS GENERAL_FL=BUILDING STORY 6_SCHG 6 PTAC MIXED AIR NODE,Air,1
 Node,954,DU_BT=SPACE FUNCTION_ST=DWELLING UNITS GENERAL_FL=BUILDING STORY 6_SCHG 6 PTAC COOLING COIL OUTLET NODE,Air,1
 Node,955,DU_BT=SPACE FUNCTION_ST=DWELLING UNITS GENERAL_FL=BUILDING STORY 6_SCHG 7 PTAC MIXED AIR NODE,Air,1
 Node,956,DU_BT=SPACE FUNCTION_ST=DWELLING UNITS GENERAL_FL=BUILDING STORY 6_SCHG 7 PTAC COOLING COIL OUTLET NODE,Air,1
 Node,957,DU_BT=SPACE FUNCTION_ST=DWELLING UNITS GENERAL_FL=BUILDING STORY 7_SCHG PTAC MIXED AIR NODE,Air,1
 Node,958,DU_BT=SPACE FUNCTION_ST=DWELLING UNITS GENERAL_FL=BUILDING STORY 7_SCHG PTAC COOLING COIL OUTLET NODE,Air,1
 Node,959,DU_BT=SPACE FUNCTION_ST=DWELLING UNITS GENERAL_FL=BUILDING STORY 7_SCHG 1 PTAC MIXED AIR NODE,Air,1
 Node,960,DU_BT=SPACE FUNCTION_ST=DWELLING UNITS GENERAL_FL=BUILDING STORY 7_SCHG 1 PTAC COOLING COIL OUTLET NODE,Air,1
 Node,961,DU_BT=SPACE FUNCTION_ST=DWELLING UNITS GENERAL_FL=BUILDING STORY 7_SCHG 2 PTAC MIXED AIR NODE,Air,1
 Node,962,DU_BT=SPACE FUNCTION_ST=DWELLING UNITS GENERAL_FL=BUILDING STORY 7_SCHG 2 PTAC COOLING COIL OUTLET NODE,Air,1
 Node,963,DU_BT=SPACE FUNCTION_ST=DWELLING UNITS GENERAL_FL=BUILDING STORY 7_SCHG 3 PTAC MIXED AIR NODE,Air,1
 Node,964,DU_BT=SPACE FUNCTION_ST=DWELLING UNITS GENERAL_FL=BUILDING STORY 7_SCHG 3 PTAC COOLING COIL OUTLET NODE,Air,1
 Node,965,DU_BT=SPACE FUNCTION_ST=DWELLING UNITS GENERAL_FL=BUILDING STORY 7_SCHG 4 PTAC MIXED AIR NODE,Air,1
 Node,966,DU_BT=SPACE FUNCTION_ST=DWELLING UNITS GENERAL_FL=BUILDING STORY 7_SCHG 4 PTAC COOLING COIL OUTLET NODE,Air,1
 Node,967,DU_BT=SPACE FUNCTION_ST=DWELLING UNITS GENERAL_FL=BUILDING STORY 7_SCHG 5 PTAC MIXED AIR NODE,Air,1
 Node,968,DU_BT=SPACE FUNCTION_ST=DWELLING UNITS GENERAL_FL=BUILDING STORY 7_SCHG 5 PTAC COOLING COIL OUTLET NODE,Air,1
 Node,969,DU_BT=SPACE FUNCTION_ST=DWELLING UNITS GENERAL_FL=BUILDING STORY 7_SCHG 6 PTAC MIXED AIR NODE,Air,1
 Node,970,DU_BT=SPACE FUNCTION_ST=DWELLING UNITS GENERAL_FL=BUILDING STORY 7_SCHG 6 PTAC COOLING COIL OUTLET NODE,Air,1
 Node,971,DU_BT=SPACE FUNCTION_ST=DWELLING UNITS GENERAL_FL=BUILDING STORY 7_SCHG 7 PTAC MIXED AIR NODE,Air,1
 Node,972,DU_BT=SPACE FUNCTION_ST=DWELLING UNITS GENERAL_FL=BUILDING STORY 7_SCHG 7 PTAC COOLING COIL OUTLET NODE,Air,1
 Node,973,DU_BT=SPACE FUNCTION_ST=DWELLING UNITS GENERAL_FL=BUILDING STORY 8_SCHG PTAC MIXED AIR NODE,Air,1
 Node,974,DU_BT=SPACE FUNCTION_ST=DWELLING UNITS GENERAL_FL=BUILDING STORY 8_SCHG PTAC COOLING COIL OUTLET NODE,Air,1
 Node,975,DU_BT=SPACE FUNCTION_ST=DWELLING UNITS GENERAL_FL=BUILDING STORY 8_SCHG 1 PTAC MIXED AIR NODE,Air,1
 Node,976,DU_BT=SPACE FUNCTION_ST=DWELLING UNITS GENERAL_FL=BUILDING STORY 8_SCHG 1 PTAC COOLING COIL OUTLET NODE,Air,1
 Node,977,DU_BT=SPACE FUNCTION_ST=DWELLING UNITS GENERAL_FL=BUILDING STORY 8_SCHG 2 PTAC MIXED AIR NODE,Air,1
 Node,978,DU_BT=SPACE FUNCTION_ST=DWELLING UNITS GENERAL_FL=BUILDING STORY 8_SCHG 2 PTAC COOLING COIL OUTLET NODE,Air,1
 Node,979,DU_BT=SPACE FUNCTION_ST=DWELLING UNITS GENERAL_FL=BUILDING STORY 8_SCHG 3 PTAC MIXED AIR NODE,Air,1
 Node,980,DU_BT=SPACE FUNCTION_ST=DWELLING UNITS GENERAL_FL=BUILDING STORY 8_SCHG 3 PTAC COOLING COIL OUTLET NODE,Air,1
 Node,981,DU_BT=SPACE FUNCTION_ST=DWELLING UNITS GENERAL_FL=BUILDING STORY 8_SCHG 4 PTAC MIXED AIR NODE,Air,1
 Node,982,DU_BT=SPACE FUNCTION_ST=DWELLING UNITS GENERAL_FL=BUILDING STORY 8_SCHG 4 PTAC COOLING COIL OUTLET NODE,Air,1
 Node,983,DU_BT=SPACE FUNCTION_ST=DWELLING UNITS GENERAL_FL=BUILDING STORY 8_SCHG 5 PTAC MIXED AIR NODE,Air,1
 Node,984,DU_BT=SPACE FUNCTION_ST=DWELLING UNITS GENERAL_FL=BUILDING STORY 8_SCHG 5 PTAC COOLING COIL OUTLET NODE,Air,1
 Node,985,DU_BT=SPACE FUNCTION_ST=DWELLING UNITS GENERAL_FL=BUILDING STORY 8_SCHG 6 PTAC MIXED AIR NODE,Air,1
 Node,986,DU_BT=SPACE FUNCTION_ST=DWELLING UNITS GENERAL_FL=BUILDING STORY 8_SCHG 6 PTAC COOLING COIL OUTLET NODE,Air,1
 Node,987,DU_BT=SPACE FUNCTION_ST=DWELLING UNITS GENERAL_FL=BUILDING STORY 8_SCHG 7 PTAC MIXED AIR NODE,Air,1
 Node,988,DU_BT=SPACE FUNCTION_ST=DWELLING UNITS GENERAL_FL=BUILDING STORY 8_SCHG 7 PTAC COOLING COIL OUTLET NODE,Air,1
 Node,989,DU_BT=SPACE FUNCTION_ST=DWELLING UNITS GENERAL_FL=BUILDING STORY 9_SCHG PTAC MIXED AIR NODE,Air,1
 Node,990,DU_BT=SPACE FUNCTION_ST=DWELLING UNITS GENERAL_FL=BUILDING STORY 9_SCHG PTAC COOLING COIL OUTLET NODE,Air,1
 Node,991,DU_BT=SPACE FUNCTION_ST=DWELLING UNITS GENERAL_FL=BUILDING STORY 9_SCHG 1 PTAC MIXED AIR NODE,Air,1
 Node,992,DU_BT=SPACE FUNCTION_ST=DWELLING UNITS GENERAL_FL=BUILDING STORY 9_SCHG 1 PTAC COOLING COIL OUTLET NODE,Air,1
 Node,993,DU_BT=SPACE FUNCTION_ST=DWELLING UNITS GENERAL_FL=BUILDING STORY 9_SCHG 2 PTAC MIXED AIR NODE,Air,1
 Node,994,DU_BT=SPACE FUNCTION_ST=DWELLING UNITS GENERAL_FL=BUILDING STORY 9_SCHG 2 PTAC COOLING COIL OUTLET NODE,Air,1
 Node,995,DU_BT=SPACE FUNCTION_ST=DWELLING UNITS GENERAL_FL=BUILDING STORY 9_SCHG 3 PTAC MIXED AIR NODE,Air,1
 Node,996,DU_BT=SPACE FUNCTION_ST=DWELLING UNITS GENERAL_FL=BUILDING STORY 9_SCHG 3 PTAC COOLING COIL OUTLET NODE,Air,1
 Node,997,DU_BT=SPACE FUNCTION_ST=DWELLING UNITS GENERAL_FL=BUILDING STORY 9_SCHG 4 PTAC MIXED AIR NODE,Air,1
 Node,998,DU_BT=SPACE FUNCTION_ST=DWELLING UNITS GENERAL_FL=BUILDING STORY 9_SCHG 4 PTAC COOLING COIL OUTLET NODE,Air,1
 Node,999,DU_BT=SPACE FUNCTION_ST=DWELLING UNITS GENERAL_FL=BUILDING STORY 9_SCHG 5 PTAC MIXED AIR NODE,Air,1
 Node,1000,DU_BT=SPACE FUNCTION_ST=DWELLING UNITS GENERAL_FL=BUILDING STORY 9_SCHG 5 PTAC COOLING COIL OUTLET NODE,Air,1
 Node,1001,DU_BT=SPACE FUNCTION_ST=DWELLING UNITS GENERAL_FL=BUILDING STORY 9_SCHG 6 PTAC MIXED AIR NODE,Air,1
 Node,1002,DU_BT=SPACE FUNCTION_ST=DWELLING UNITS GENERAL_FL=BUILDING STORY 9_SCHG 6 PTAC COOLING COIL OUTLET NODE,Air,1
 Node,1003,DU_BT=SPACE FUNCTION_ST=DWELLING UNITS GENERAL_FL=BUILDING STORY 9_SCHG 7 PTAC MIXED AIR NODE,Air,1
 Node,1004,DU_BT=SPACE FUNCTION_ST=DWELLING UNITS GENERAL_FL=BUILDING STORY 9_SCHG 7 PTAC COOLING COIL OUTLET NODE,Air,1
 Node,1005,704GAL ELECTRICITY WATER HEATER - 475KBTU/HR 1.0 THERM EFF ASHPWH MIXER OUTLET - EVAP INLET,Air,1
 Node,1006,704GAL ELECTRICITY WATER HEATER - 475KBTU/HR 1.0 THERM EFF ASHPWH EVAP OUTLET - FAN INLET,Air,1
 Node,1007,ZONE HVAC TERMINAL UNIT VARIABLE REFRIGERANT FLOW 1 OUTDOOR AIR NODE,Air,1
 Node,1008,DU_BT=SPACE FUNCTION_ST=DWELLING UNITS GENERAL_FL=BUILDING STORY 10_SCHG PTAC OA NODE,Air,1
 Node,1009,ZONE HVAC TERMINAL UNIT VARIABLE REFRIGERANT FLOW 18 OUTDOOR AIR NODE,Air,1
 Node,1010,DU_BT=SPACE FUNCTION_ST=DWELLING UNITS GENERAL_FL=BUILDING STORY 10_SCHG 1 PTAC OA NODE,Air,1
 Node,1011,ZONE HVAC TERMINAL UNIT VARIABLE REFRIGERANT FLOW 25 OUTDOOR AIR NODE,Air,1
 Node,1012,DU_BT=SPACE FUNCTION_ST=DWELLING UNITS GENERAL_FL=BUILDING STORY 10_SCHG 2 PTAC OA NODE,Air,1
 Node,1013,ZONE HVAC TERMINAL UNIT VARIABLE REFRIGERANT FLOW 28 OUTDOOR AIR NODE,Air,1
 Node,1014,DU_BT=SPACE FUNCTION_ST=DWELLING UNITS GENERAL_FL=BUILDING STORY 10_SCHG 3 PTAC OA NODE,Air,1
 Node,1015,ZONE HVAC TERMINAL UNIT VARIABLE REFRIGERANT FLOW 43 OUTDOOR AIR NODE,Air,1
 Node,1016,DU_BT=SPACE FUNCTION_ST=DWELLING UNITS GENERAL_FL=BUILDING STORY 10_SCHG 4 PTAC OA NODE,Air,1
 Node,1017,ZONE HVAC TERMINAL UNIT VARIABLE REFRIGERANT FLOW 51 OUTDOOR AIR NODE,Air,1
 Node,1018,DU_BT=SPACE FUNCTION_ST=DWELLING UNITS GENERAL_FL=BUILDING STORY 10_SCHG 5 PTAC OA NODE,Air,1
 Node,1019,ZONE HVAC TERMINAL UNIT VARIABLE REFRIGERANT FLOW 63 OUTDOOR AIR NODE,Air,1
 Node,1020,DU_BT=SPACE FUNCTION_ST=DWELLING UNITS GENERAL_FL=BUILDING STORY 10_SCHG 6 PTAC OA NODE,Air,1
 Node,1021,ZONE HVAC TERMINAL UNIT VARIABLE REFRIGERANT FLOW 65 OUTDOOR AIR NODE,Air,1
 Node,1022,DU_BT=SPACE FUNCTION_ST=DWELLING UNITS GENERAL_FL=BUILDING STORY 10_SCHG 7 PTAC OA NODE,Air,1
 Node,1023,ZONE HVAC TERMINAL UNIT VARIABLE REFRIGERANT FLOW 71 OUTDOOR AIR NODE,Air,1
 Node,1024,DU_BT=SPACE FUNCTION_ST=DWELLING UNITS GENERAL_FL=BUILDING STORY 1_SCHG PTAC OA NODE,Air,1
 Node,1025,ZONE HVAC TERMINAL UNIT VARIABLE REFRIGERANT FLOW 12 OUTDOOR AIR NODE,Air,1
 Node,1026,DU_BT=SPACE FUNCTION_ST=DWELLING UNITS GENERAL_FL=BUILDING STORY 1_SCHG 1 PTAC OA NODE,Air,1
 Node,1027,ZONE HVAC TERMINAL UNIT VARIABLE REFRIGERANT FLOW 20 OUTDOOR AIR NODE,Air,1
 Node,1028,DU_BT=SPACE FUNCTION_ST=DWELLING UNITS GENERAL_FL=BUILDING STORY 1_SCHG 2 PTAC OA NODE,Air,1
 Node,1029,ZONE HVAC TERMINAL UNIT VARIABLE REFRIGERANT FLOW 38 OUTDOOR AIR NODE,Air,1
 Node,1030,DU_BT=SPACE FUNCTION_ST=DWELLING UNITS GENERAL_FL=BUILDING STORY 1_SCHG 3 PTAC OA NODE,Air,1
 Node,1031,ZONE HVAC TERMINAL UNIT VARIABLE REFRIGERANT FLOW 54 OUTDOOR AIR NODE,Air,1
 Node,1032,DU_BT=SPACE FUNCTION_ST=DWELLING UNITS GENERAL_FL=BUILDING STORY 1_SCHG 4 PTAC OA NODE,Air,1
 Node,1033,ZONE HVAC TERMINAL UNIT VARIABLE REFRIGERANT FLOW 55 OUTDOOR AIR NODE,Air,1
 Node,1034,DU_BT=SPACE FUNCTION_ST=DWELLING UNITS GENERAL_FL=BUILDING STORY 1_SCHG 5 PTAC OA NODE,Air,1
 Node,1035,ZONE HVAC TERMINAL UNIT VARIABLE REFRIGERANT FLOW 58 OUTDOOR AIR NODE,Air,1
 Node,1036,DU_BT=SPACE FUNCTION_ST=DWELLING UNITS GENERAL_FL=BUILDING STORY 1_SCHG 6 PTAC OA NODE,Air,1
 Node,1037,ZONE HVAC TERMINAL UNIT VARIABLE REFRIGERANT FLOW 72 OUTDOOR AIR NODE,Air,1
 Node,1038,DU_BT=SPACE FUNCTION_ST=DWELLING UNITS GENERAL_FL=BUILDING STORY 2_SCHG PTAC OA NODE,Air,1
 Node,1039,ZONE HVAC TERMINAL UNIT VARIABLE REFRIGERANT FLOW 16 OUTDOOR AIR NODE,Air,1
 Node,1040,DU_BT=SPACE FUNCTION_ST=DWELLING UNITS GENERAL_FL=BUILDING STORY 2_SCHG 1 PTAC OA NODE,Air,1
 Node,1041,ZONE HVAC TERMINAL UNIT VARIABLE REFRIGERANT FLOW 26 OUTDOOR AIR NODE,Air,1
 Node,1042,DU_BT=SPACE FUNCTION_ST=DWELLING UNITS GENERAL_FL=BUILDING STORY 2_SCHG 2 PTAC OA NODE,Air,1
 Node,1043,ZONE HVAC TERMINAL UNIT VARIABLE REFRIGERANT FLOW 52 OUTDOOR AIR NODE,Air,1
 Node,1044,DU_BT=SPACE FUNCTION_ST=DWELLING UNITS GENERAL_FL=BUILDING STORY 2_SCHG 3 PTAC OA NODE,Air,1
 Node,1045,ZONE HVAC TERMINAL UNIT VARIABLE REFRIGERANT FLOW 57 OUTDOOR AIR NODE,Air,1
 Node,1046,DU_BT=SPACE FUNCTION_ST=DWELLING UNITS GENERAL_FL=BUILDING STORY 2_SCHG 4 PTAC OA NODE,Air,1
 Node,1047,ZONE HVAC TERMINAL UNIT VARIABLE REFRIGERANT FLOW 60 OUTDOOR AIR NODE,Air,1
 Node,1048,DU_BT=SPACE FUNCTION_ST=DWELLING UNITS GENERAL_FL=BUILDING STORY 2_SCHG 5 PTAC OA NODE,Air,1
 Node,1049,ZONE HVAC TERMINAL UNIT VARIABLE REFRIGERANT FLOW 67 OUTDOOR AIR NODE,Air,1
 Node,1050,DU_BT=SPACE FUNCTION_ST=DWELLING UNITS GENERAL_FL=BUILDING STORY 2_SCHG 6 PTAC OA NODE,Air,1
 Node,1051,ZONE HVAC TERMINAL UNIT VARIABLE REFRIGERANT FLOW 83 OUTDOOR AIR NODE,Air,1
 Node,1052,DU_BT=SPACE FUNCTION_ST=DWELLING UNITS GENERAL_FL=BUILDING STORY 2_SCHG 7 PTAC OA NODE,Air,1
 Node,1053,ZONE HVAC TERMINAL UNIT VARIABLE REFRIGERANT FLOW 85 OUTDOOR AIR NODE,Air,1
 Node,1054,DU_BT=SPACE FUNCTION_ST=DWELLING UNITS GENERAL_FL=BUILDING STORY 3_SCHG PTAC OA NODE,Air,1
 Node,1055,ZONE HVAC TERMINAL UNIT VARIABLE REFRIGERANT FLOW 15 OUTDOOR AIR NODE,Air,1
 Node,1056,DU_BT=SPACE FUNCTION_ST=DWELLING UNITS GENERAL_FL=BUILDING STORY 3_SCHG 1 PTAC OA NODE,Air,1
 Node,1057,ZONE HVAC TERMINAL UNIT VARIABLE REFRIGERANT FLOW 24 OUTDOOR AIR NODE,Air,1
 Node,1058,DU_BT=SPACE FUNCTION_ST=DWELLING UNITS GENERAL_FL=BUILDING STORY 3_SCHG 2 PTAC OA NODE,Air,1
 Node,1059,ZONE HVAC TERMINAL UNIT VARIABLE REFRIGERANT FLOW 27 OUTDOOR AIR NODE,Air,1
 Node,1060,DU_BT=SPACE FUNCTION_ST=DWELLING UNITS GENERAL_FL=BUILDING STORY 3_SCHG 3 PTAC OA NODE,Air,1
 Node,1061,ZONE HVAC TERMINAL UNIT VARIABLE REFRIGERANT FLOW 56 OUTDOOR AIR NODE,Air,1
 Node,1062,DU_BT=SPACE FUNCTION_ST=DWELLING UNITS GENERAL_FL=BUILDING STORY 3_SCHG 4 PTAC OA NODE,Air,1
 Node,1063,ZONE HVAC TERMINAL UNIT VARIABLE REFRIGERANT FLOW 66 OUTDOOR AIR NODE,Air,1
 Node,1064,DU_BT=SPACE FUNCTION_ST=DWELLING UNITS GENERAL_FL=BUILDING STORY 3_SCHG 5 PTAC OA NODE,Air,1
 Node,1065,ZONE HVAC TERMINAL UNIT VARIABLE REFRIGERANT FLOW 68 OUTDOOR AIR NODE,Air,1
 Node,1066,DU_BT=SPACE FUNCTION_ST=DWELLING UNITS GENERAL_FL=BUILDING STORY 3_SCHG 6 PTAC OA NODE,Air,1
 Node,1067,ZONE HVAC TERMINAL UNIT VARIABLE REFRIGERANT FLOW 75 OUTDOOR AIR NODE,Air,1
 Node,1068,DU_BT=SPACE FUNCTION_ST=DWELLING UNITS GENERAL_FL=BUILDING STORY 3_SCHG 7 PTAC OA NODE,Air,1
 Node,1069,ZONE HVAC TERMINAL UNIT VARIABLE REFRIGERANT FLOW 88 OUTDOOR AIR NODE,Air,1
 Node,1070,DU_BT=SPACE FUNCTION_ST=DWELLING UNITS GENERAL_FL=BUILDING STORY 4_SCHG PTAC OA NODE,Air,1
 Node,1071,ZONE HVAC TERMINAL UNIT VARIABLE REFRIGERANT FLOW 19 OUTDOOR AIR NODE,Air,1
 Node,1072,DU_BT=SPACE FUNCTION_ST=DWELLING UNITS GENERAL_FL=BUILDING STORY 4_SCHG 1 PTAC OA NODE,Air,1
 Node,1073,ZONE HVAC TERMINAL UNIT VARIABLE REFRIGERANT FLOW 36 OUTDOOR AIR NODE,Air,1
 Node,1074,DU_BT=SPACE FUNCTION_ST=DWELLING UNITS GENERAL_FL=BUILDING STORY 4_SCHG 2 PTAC OA NODE,Air,1
 Node,1075,ZONE HVAC TERMINAL UNIT VARIABLE REFRIGERANT FLOW 48 OUTDOOR AIR NODE,Air,1
 Node,1076,DU_BT=SPACE FUNCTION_ST=DWELLING UNITS GENERAL_FL=BUILDING STORY 4_SCHG 3 PTAC OA NODE,Air,1
 Node,1077,ZONE HVAC TERMINAL UNIT VARIABLE REFRIGERANT FLOW 50 OUTDOOR AIR NODE,Air,1
 Node,1078,DU_BT=SPACE FUNCTION_ST=DWELLING UNITS GENERAL_FL=BUILDING STORY 4_SCHG 4 PTAC OA NODE,Air,1
 Node,1079,ZONE HVAC TERMINAL UNIT VARIABLE REFRIGERANT FLOW 78 OUTDOOR AIR NODE,Air,1
 Node,1080,DU_BT=SPACE FUNCTION_ST=DWELLING UNITS GENERAL_FL=BUILDING STORY 4_SCHG 5 PTAC OA NODE,Air,1
 Node,1081,ZONE HVAC TERMINAL UNIT VARIABLE REFRIGERANT FLOW 79 OUTDOOR AIR NODE,Air,1
 Node,1082,DU_BT=SPACE FUNCTION_ST=DWELLING UNITS GENERAL_FL=BUILDING STORY 4_SCHG 6 PTAC OA NODE,Air,1
 Node,1083,ZONE HVAC TERMINAL UNIT VARIABLE REFRIGERANT FLOW 86 OUTDOOR AIR NODE,Air,1
 Node,1084,DU_BT=SPACE FUNCTION_ST=DWELLING UNITS GENERAL_FL=BUILDING STORY 4_SCHG 7 PTAC OA NODE,Air,1
 Node,1085,ZONE HVAC TERMINAL UNIT VARIABLE REFRIGERANT FLOW 90 OUTDOOR AIR NODE,Air,1
 Node,1086,DU_BT=SPACE FUNCTION_ST=DWELLING UNITS GENERAL_FL=BUILDING STORY 5_SCHG PTAC OA NODE,Air,1
 Node,1087,ZONE HVAC TERMINAL UNIT VARIABLE REFRIGERANT FLOW 14 OUTDOOR AIR NODE,Air,1
 Node,1088,DU_BT=SPACE FUNCTION_ST=DWELLING UNITS GENERAL_FL=BUILDING STORY 5_SCHG 1 PTAC OA NODE,Air,1
 Node,1089,ZONE HVAC TERMINAL UNIT VARIABLE REFRIGERANT FLOW 21 OUTDOOR AIR NODE,Air,1
 Node,1090,DU_BT=SPACE FUNCTION_ST=DWELLING UNITS GENERAL_FL=BUILDING STORY 5_SCHG 2 PTAC OA NODE,Air,1
 Node,1091,ZONE HVAC TERMINAL UNIT VARIABLE REFRIGERANT FLOW 35 OUTDOOR AIR NODE,Air,1
 Node,1092,DU_BT=SPACE FUNCTION_ST=DWELLING UNITS GENERAL_FL=BUILDING STORY 5_SCHG 3 PTAC OA NODE,Air,1
 Node,1093,ZONE HVAC TERMINAL UNIT VARIABLE REFRIGERANT FLOW 37 OUTDOOR AIR NODE,Air,1
 Node,1094,DU_BT=SPACE FUNCTION_ST=DWELLING UNITS GENERAL_FL=BUILDING STORY 5_SCHG 4 PTAC OA NODE,Air,1
 Node,1095,ZONE HVAC TERMINAL UNIT VARIABLE REFRIGERANT FLOW 49 OUTDOOR AIR NODE,Air,1
 Node,1096,DU_BT=SPACE FUNCTION_ST=DWELLING UNITS GENERAL_FL=BUILDING STORY 5_SCHG 5 PTAC OA NODE,Air,1
 Node,1097,ZONE HVAC TERMINAL UNIT VARIABLE REFRIGERANT FLOW 77 OUTDOOR AIR NODE,Air,1
 Node,1098,DU_BT=SPACE FUNCTION_ST=DWELLING UNITS GENERAL_FL=BUILDING STORY 5_SCHG 6 PTAC OA NODE,Air,1
 Node,1099,ZONE HVAC TERMINAL UNIT VARIABLE REFRIGERANT FLOW 80 OUTDOOR AIR NODE,Air,1
 Node,1100,DU_BT=SPACE FUNCTION_ST=DWELLING UNITS GENERAL_FL=BUILDING STORY 5_SCHG 7 PTAC OA NODE,Air,1
 Node,1101,ZONE HVAC TERMINAL UNIT VARIABLE REFRIGERANT FLOW 84 OUTDOOR AIR NODE,Air,1
 Node,1102,DU_BT=SPACE FUNCTION_ST=DWELLING UNITS GENERAL_FL=BUILDING STORY 6_SCHG PTAC OA NODE,Air,1
 Node,1103,ZONE HVAC TERMINAL UNIT VARIABLE REFRIGERANT FLOW 13 OUTDOOR AIR NODE,Air,1
 Node,1104,DU_BT=SPACE FUNCTION_ST=DWELLING UNITS GENERAL_FL=BUILDING STORY 6_SCHG 1 PTAC OA NODE,Air,1
 Node,1105,ZONE HVAC TERMINAL UNIT VARIABLE REFRIGERANT FLOW 22 OUTDOOR AIR NODE,Air,1
 Node,1106,DU_BT=SPACE FUNCTION_ST=DWELLING UNITS GENERAL_FL=BUILDING STORY 6_SCHG 2 PTAC OA NODE,Air,1
 Node,1107,ZONE HVAC TERMINAL UNIT VARIABLE REFRIGERANT FLOW 40 OUTDOOR AIR NODE,Air,1
 Node,1108,DU_BT=SPACE FUNCTION_ST=DWELLING UNITS GENERAL_FL=BUILDING STORY 6_SCHG 3 PTAC OA NODE,Air,1
 Node,1109,ZONE HVAC TERMINAL UNIT VARIABLE REFRIGERANT FLOW 41 OUTDOOR AIR NODE,Air,1
 Node,1110,DU_BT=SPACE FUNCTION_ST=DWELLING UNITS GENERAL_FL=BUILDING STORY 6_SCHG 4 PTAC OA NODE,Air,1
 Node,1111,ZONE HVAC TERMINAL UNIT VARIABLE REFRIGERANT FLOW 44 OUTDOOR AIR NODE,Air,1
 Node,1112,DU_BT=SPACE FUNCTION_ST=DWELLING UNITS GENERAL_FL=BUILDING STORY 6_SCHG 5 PTAC OA NODE,Air,1
 Node,1113,ZONE HVAC TERMINAL UNIT VARIABLE REFRIGERANT FLOW 61 OUTDOOR AIR NODE,Air,1
 Node,1114,DU_BT=SPACE FUNCTION_ST=DWELLING UNITS GENERAL_FL=BUILDING STORY 6_SCHG 6 PTAC OA NODE,Air,1
 Node,1115,ZONE HVAC TERMINAL UNIT VARIABLE REFRIGERANT FLOW 62 OUTDOOR AIR NODE,Air,1
 Node,1116,DU_BT=SPACE FUNCTION_ST=DWELLING UNITS GENERAL_FL=BUILDING STORY 6_SCHG 7 PTAC OA NODE,Air,1
 Node,1117,ZONE HVAC TERMINAL UNIT VARIABLE REFRIGERANT FLOW 81 OUTDOOR AIR NODE,Air,1
 Node,1118,DU_BT=SPACE FUNCTION_ST=DWELLING UNITS GENERAL_FL=BUILDING STORY 7_SCHG PTAC OA NODE,Air,1
 Node,1119,ZONE HVAC TERMINAL UNIT VARIABLE REFRIGERANT FLOW 32 OUTDOOR AIR NODE,Air,1
 Node,1120,DU_BT=SPACE FUNCTION_ST=DWELLING UNITS GENERAL_FL=BUILDING STORY 7_SCHG 1 PTAC OA NODE,Air,1
 Node,1121,ZONE HVAC TERMINAL UNIT VARIABLE REFRIGERANT FLOW 39 OUTDOOR AIR NODE,Air,1
 Node,1122,DU_BT=SPACE FUNCTION_ST=DWELLING UNITS GENERAL_FL=BUILDING STORY 7_SCHG 2 PTAC OA NODE,Air,1
 Node,1123,ZONE HVAC TERMINAL UNIT VARIABLE REFRIGERANT FLOW 70 OUTDOOR AIR NODE,Air,1
 Node,1124,DU_BT=SPACE FUNCTION_ST=DWELLING UNITS GENERAL_FL=BUILDING STORY 7_SCHG 3 PTAC OA NODE,Air,1
 Node,1125,ZONE HVAC TERMINAL UNIT VARIABLE REFRIGERANT FLOW 73 OUTDOOR AIR NODE,Air,1
 Node,1126,DU_BT=SPACE FUNCTION_ST=DWELLING UNITS GENERAL_FL=BUILDING STORY 7_SCHG 4 PTAC OA NODE,Air,1
 Node,1127,ZONE HVAC TERMINAL UNIT VARIABLE REFRIGERANT FLOW 74 OUTDOOR AIR NODE,Air,1
 Node,1128,DU_BT=SPACE FUNCTION_ST=DWELLING UNITS GENERAL_FL=BUILDING STORY 7_SCHG 5 PTAC OA NODE,Air,1
 Node,1129,ZONE HVAC TERMINAL UNIT VARIABLE REFRIGERANT FLOW 82 OUTDOOR AIR NODE,Air,1
 Node,1130,DU_BT=SPACE FUNCTION_ST=DWELLING UNITS GENERAL_FL=BUILDING STORY 7_SCHG 6 PTAC OA NODE,Air,1
 Node,1131,ZONE HVAC TERMINAL UNIT VARIABLE REFRIGERANT FLOW 87 OUTDOOR AIR NODE,Air,1
 Node,1132,DU_BT=SPACE FUNCTION_ST=DWELLING UNITS GENERAL_FL=BUILDING STORY 7_SCHG 7 PTAC OA NODE,Air,1
 Node,1133,ZONE HVAC TERMINAL UNIT VARIABLE REFRIGERANT FLOW 89 OUTDOOR AIR NODE,Air,1
 Node,1134,DU_BT=SPACE FUNCTION_ST=DWELLING UNITS GENERAL_FL=BUILDING STORY 8_SCHG PTAC OA NODE,Air,1
 Node,1135,ZONE HVAC TERMINAL UNIT VARIABLE REFRIGERANT FLOW 17 OUTDOOR AIR NODE,Air,1
 Node,1136,DU_BT=SPACE FUNCTION_ST=DWELLING UNITS GENERAL_FL=BUILDING STORY 8_SCHG 1 PTAC OA NODE,Air,1
 Node,1137,ZONE HVAC TERMINAL UNIT VARIABLE REFRIGERANT FLOW 23 OUTDOOR AIR NODE,Air,1
 Node,1138,DU_BT=SPACE FUNCTION_ST=DWELLING UNITS GENERAL_FL=BUILDING STORY 8_SCHG 2 PTAC OA NODE,Air,1
 Node,1139,ZONE HVAC TERMINAL UNIT VARIABLE REFRIGERANT FLOW 31 OUTDOOR AIR NODE,Air,1
 Node,1140,DU_BT=SPACE FUNCTION_ST=DWELLING UNITS GENERAL_FL=BUILDING STORY 8_SCHG 3 PTAC OA NODE,Air,1
 Node,1141,ZONE HVAC TERMINAL UNIT VARIABLE REFRIGERANT FLOW 34 OUTDOOR AIR NODE,Air,1
 Node,1142,DU_BT=SPACE FUNCTION_ST=DWELLING UNITS GENERAL_FL=BUILDING STORY 8_SCHG 4 PTAC OA NODE,Air,1
 Node,1143,ZONE HVAC TERMINAL UNIT VARIABLE REFRIGERANT FLOW 53 OUTDOOR AIR NODE,Air,1
 Node,1144,DU_BT=SPACE FUNCTION_ST=DWELLING UNITS GENERAL_FL=BUILDING STORY 8_SCHG 5 PTAC OA NODE,Air,1
 Node,1145,ZONE HVAC TERMINAL UNIT VARIABLE REFRIGERANT FLOW 59 OUTDOOR AIR NODE,Air,1
 Node,1146,DU_BT=SPACE FUNCTION_ST=DWELLING UNITS GENERAL_FL=BUILDING STORY 8_SCHG 6 PTAC OA NODE,Air,1
 Node,1147,ZONE HVAC TERMINAL UNIT VARIABLE REFRIGERANT FLOW 69 OUTDOOR AIR NODE,Air,1
 Node,1148,DU_BT=SPACE FUNCTION_ST=DWELLING UNITS GENERAL_FL=BUILDING STORY 8_SCHG 7 PTAC OA NODE,Air,1
 Node,1149,ZONE HVAC TERMINAL UNIT VARIABLE REFRIGERANT FLOW 76 OUTDOOR AIR NODE,Air,1
 Node,1150,DU_BT=SPACE FUNCTION_ST=DWELLING UNITS GENERAL_FL=BUILDING STORY 9_SCHG PTAC OA NODE,Air,1
 Node,1151,ZONE HVAC TERMINAL UNIT VARIABLE REFRIGERANT FLOW 29 OUTDOOR AIR NODE,Air,1
 Node,1152,DU_BT=SPACE FUNCTION_ST=DWELLING UNITS GENERAL_FL=BUILDING STORY 9_SCHG 1 PTAC OA NODE,Air,1
 Node,1153,ZONE HVAC TERMINAL UNIT VARIABLE REFRIGERANT FLOW 30 OUTDOOR AIR NODE,Air,1
 Node,1154,DU_BT=SPACE FUNCTION_ST=DWELLING UNITS GENERAL_FL=BUILDING STORY 9_SCHG 2 PTAC OA NODE,Air,1
 Node,1155,ZONE HVAC TERMINAL UNIT VARIABLE REFRIGERANT FLOW 33 OUTDOOR AIR NODE,Air,1
 Node,1156,DU_BT=SPACE FUNCTION_ST=DWELLING UNITS GENERAL_FL=BUILDING STORY 9_SCHG 3 PTAC OA NODE,Air,1
 Node,1157,ZONE HVAC TERMINAL UNIT VARIABLE REFRIGERANT FLOW 42 OUTDOOR AIR NODE,Air,1
 Node,1158,DU_BT=SPACE FUNCTION_ST=DWELLING UNITS GENERAL_FL=BUILDING STORY 9_SCHG 4 PTAC OA NODE,Air,1
 Node,1159,ZONE HVAC TERMINAL UNIT VARIABLE REFRIGERANT FLOW 45 OUTDOOR AIR NODE,Air,1
 Node,1160,DU_BT=SPACE FUNCTION_ST=DWELLING UNITS GENERAL_FL=BUILDING STORY 9_SCHG 5 PTAC OA NODE,Air,1
 Node,1161,ZONE HVAC TERMINAL UNIT VARIABLE REFRIGERANT FLOW 46 OUTDOOR AIR NODE,Air,1
 Node,1162,DU_BT=SPACE FUNCTION_ST=DWELLING UNITS GENERAL_FL=BUILDING STORY 9_SCHG 6 PTAC OA NODE,Air,1
 Node,1163,ZONE HVAC TERMINAL UNIT VARIABLE REFRIGERANT FLOW 47 OUTDOOR AIR NODE,Air,1
 Node,1164,DU_BT=SPACE FUNCTION_ST=DWELLING UNITS GENERAL_FL=BUILDING STORY 9_SCHG 7 PTAC OA NODE,Air,1
 Node,1165,ZONE HVAC TERMINAL UNIT VARIABLE REFRIGERANT FLOW 64 OUTDOOR AIR NODE,Air,1
 Node,1166,ZONE HVAC TERMINAL UNIT VARIABLE REFRIGERANT FLOW 2 OUTDOOR AIR NODE,Air,1
 Node,1167,ZONE HVAC TERMINAL UNIT VARIABLE REFRIGERANT FLOW 6 OUTDOOR AIR NODE,Air,1
 Node,1168,ZONE HVAC TERMINAL UNIT VARIABLE REFRIGERANT FLOW 7 OUTDOOR AIR NODE,Air,1
 Node,1169,ZONE HVAC TERMINAL UNIT VARIABLE REFRIGERANT FLOW 10 OUTDOOR AIR NODE,Air,1
 Node,1170,ZONE HVAC TERMINAL UNIT VARIABLE REFRIGERANT FLOW 5 OUTDOOR AIR NODE,Air,1
 Node,1171,ZONE HVAC TERMINAL UNIT VARIABLE REFRIGERANT FLOW 9 OUTDOOR AIR NODE,Air,1
 Node,1172,ZONE HVAC TERMINAL UNIT VARIABLE REFRIGERANT FLOW 11 OUTDOOR AIR NODE,Air,1
 Node,1173,ZONE HVAC TERMINAL UNIT VARIABLE REFRIGERANT FLOW 8 OUTDOOR AIR NODE,Air,1
 Node,1174,ZONE HVAC TERMINAL UNIT VARIABLE REFRIGERANT FLOW 4 OUTDOOR AIR NODE,Air,1
 Node,1175,ZONE HVAC TERMINAL UNIT VARIABLE REFRIGERANT FLOW 3 OUTDOOR AIR NODE,Air,1
 Node,1176,NODE 9,Air,3
 Node,1177,NODE 421,Air,2
 Node,1178,NODE 478,Air,2
 Node,1179,MODEL OUTDOOR AIR NODE,Air,0
 Node,1180,ZONE HVAC TERMINAL UNIT VARIABLE REFRIGERANT FLOW 1 MIXER OUTLET NODE,Air,1
 Node,1181,ZONE HVAC TERMINAL UNIT VARIABLE REFRIGERANT FLOW 1 COOLING COIL OUTLET NODE,Air,1
 Node,1182,ZONE HVAC TERMINAL UNIT VARIABLE REFRIGERANT FLOW 18 MIXER OUTLET NODE,Air,1
 Node,1183,ZONE HVAC TERMINAL UNIT VARIABLE REFRIGERANT FLOW 18 COOLING COIL OUTLET NODE,Air,1
 Node,1184,ZONE HVAC TERMINAL UNIT VARIABLE REFRIGERANT FLOW 25 MIXER OUTLET NODE,Air,1
 Node,1185,ZONE HVAC TERMINAL UNIT VARIABLE REFRIGERANT FLOW 25 COOLING COIL OUTLET NODE,Air,1
 Node,1186,ZONE HVAC TERMINAL UNIT VARIABLE REFRIGERANT FLOW 28 MIXER OUTLET NODE,Air,1
 Node,1187,ZONE HVAC TERMINAL UNIT VARIABLE REFRIGERANT FLOW 28 COOLING COIL OUTLET NODE,Air,1
 Node,1188,ZONE HVAC TERMINAL UNIT VARIABLE REFRIGERANT FLOW 43 MIXER OUTLET NODE,Air,1
 Node,1189,ZONE HVAC TERMINAL UNIT VARIABLE REFRIGERANT FLOW 43 COOLING COIL OUTLET NODE,Air,1
 Node,1190,ZONE HVAC TERMINAL UNIT VARIABLE REFRIGERANT FLOW 51 MIXER OUTLET NODE,Air,1
 Node,1191,ZONE HVAC TERMINAL UNIT VARIABLE REFRIGERANT FLOW 51 COOLING COIL OUTLET NODE,Air,1
 Node,1192,ZONE HVAC TERMINAL UNIT VARIABLE REFRIGERANT FLOW 63 MIXER OUTLET NODE,Air,1
 Node,1193,ZONE HVAC TERMINAL UNIT VARIABLE REFRIGERANT FLOW 63 COOLING COIL OUTLET NODE,Air,1
 Node,1194,ZONE HVAC TERMINAL UNIT VARIABLE REFRIGERANT FLOW 65 MIXER OUTLET NODE,Air,1
 Node,1195,ZONE HVAC TERMINAL UNIT VARIABLE REFRIGERANT FLOW 65 COOLING COIL OUTLET NODE,Air,1
 Node,1196,ZONE HVAC TERMINAL UNIT VARIABLE REFRIGERANT FLOW 71 MIXER OUTLET NODE,Air,1
 Node,1197,ZONE HVAC TERMINAL UNIT VARIABLE REFRIGERANT FLOW 71 COOLING COIL OUTLET NODE,Air,1
 Node,1198,ZONE HVAC TERMINAL UNIT VARIABLE REFRIGERANT FLOW 12 MIXER OUTLET NODE,Air,1
 Node,1199,ZONE HVAC TERMINAL UNIT VARIABLE REFRIGERANT FLOW 12 COOLING COIL OUTLET NODE,Air,1
 Node,1200,ZONE HVAC TERMINAL UNIT VARIABLE REFRIGERANT FLOW 20 MIXER OUTLET NODE,Air,1
 Node,1201,ZONE HVAC TERMINAL UNIT VARIABLE REFRIGERANT FLOW 20 COOLING COIL OUTLET NODE,Air,1
 Node,1202,ZONE HVAC TERMINAL UNIT VARIABLE REFRIGERANT FLOW 38 MIXER OUTLET NODE,Air,1
 Node,1203,ZONE HVAC TERMINAL UNIT VARIABLE REFRIGERANT FLOW 38 COOLING COIL OUTLET NODE,Air,1
 Node,1204,ZONE HVAC TERMINAL UNIT VARIABLE REFRIGERANT FLOW 54 MIXER OUTLET NODE,Air,1
 Node,1205,ZONE HVAC TERMINAL UNIT VARIABLE REFRIGERANT FLOW 54 COOLING COIL OUTLET NODE,Air,1
 Node,1206,ZONE HVAC TERMINAL UNIT VARIABLE REFRIGERANT FLOW 55 MIXER OUTLET NODE,Air,1
 Node,1207,ZONE HVAC TERMINAL UNIT VARIABLE REFRIGERANT FLOW 55 COOLING COIL OUTLET NODE,Air,1
 Node,1208,ZONE HVAC TERMINAL UNIT VARIABLE REFRIGERANT FLOW 58 MIXER OUTLET NODE,Air,1
 Node,1209,ZONE HVAC TERMINAL UNIT VARIABLE REFRIGERANT FLOW 58 COOLING COIL OUTLET NODE,Air,1
 Node,1210,ZONE HVAC TERMINAL UNIT VARIABLE REFRIGERANT FLOW 72 MIXER OUTLET NODE,Air,1
 Node,1211,ZONE HVAC TERMINAL UNIT VARIABLE REFRIGERANT FLOW 72 COOLING COIL OUTLET NODE,Air,1
 Node,1212,ZONE HVAC TERMINAL UNIT VARIABLE REFRIGERANT FLOW 16 MIXER OUTLET NODE,Air,1
 Node,1213,ZONE HVAC TERMINAL UNIT VARIABLE REFRIGERANT FLOW 16 COOLING COIL OUTLET NODE,Air,1
 Node,1214,ZONE HVAC TERMINAL UNIT VARIABLE REFRIGERANT FLOW 26 MIXER OUTLET NODE,Air,1
 Node,1215,ZONE HVAC TERMINAL UNIT VARIABLE REFRIGERANT FLOW 26 COOLING COIL OUTLET NODE,Air,1
 Node,1216,ZONE HVAC TERMINAL UNIT VARIABLE REFRIGERANT FLOW 52 MIXER OUTLET NODE,Air,1
 Node,1217,ZONE HVAC TERMINAL UNIT VARIABLE REFRIGERANT FLOW 52 COOLING COIL OUTLET NODE,Air,1
 Node,1218,ZONE HVAC TERMINAL UNIT VARIABLE REFRIGERANT FLOW 57 MIXER OUTLET NODE,Air,1
 Node,1219,ZONE HVAC TERMINAL UNIT VARIABLE REFRIGERANT FLOW 57 COOLING COIL OUTLET NODE,Air,1
 Node,1220,ZONE HVAC TERMINAL UNIT VARIABLE REFRIGERANT FLOW 60 MIXER OUTLET NODE,Air,1
 Node,1221,ZONE HVAC TERMINAL UNIT VARIABLE REFRIGERANT FLOW 60 COOLING COIL OUTLET NODE,Air,1
 Node,1222,ZONE HVAC TERMINAL UNIT VARIABLE REFRIGERANT FLOW 67 MIXER OUTLET NODE,Air,1
 Node,1223,ZONE HVAC TERMINAL UNIT VARIABLE REFRIGERANT FLOW 67 COOLING COIL OUTLET NODE,Air,1
 Node,1224,ZONE HVAC TERMINAL UNIT VARIABLE REFRIGERANT FLOW 83 MIXER OUTLET NODE,Air,1
 Node,1225,ZONE HVAC TERMINAL UNIT VARIABLE REFRIGERANT FLOW 83 COOLING COIL OUTLET NODE,Air,1
 Node,1226,ZONE HVAC TERMINAL UNIT VARIABLE REFRIGERANT FLOW 85 MIXER OUTLET NODE,Air,1
 Node,1227,ZONE HVAC TERMINAL UNIT VARIABLE REFRIGERANT FLOW 85 COOLING COIL OUTLET NODE,Air,1
 Node,1228,ZONE HVAC TERMINAL UNIT VARIABLE REFRIGERANT FLOW 15 MIXER OUTLET NODE,Air,1
 Node,1229,ZONE HVAC TERMINAL UNIT VARIABLE REFRIGERANT FLOW 15 COOLING COIL OUTLET NODE,Air,1
 Node,1230,ZONE HVAC TERMINAL UNIT VARIABLE REFRIGERANT FLOW 24 MIXER OUTLET NODE,Air,1
 Node,1231,ZONE HVAC TERMINAL UNIT VARIABLE REFRIGERANT FLOW 24 COOLING COIL OUTLET NODE,Air,1
 Node,1232,ZONE HVAC TERMINAL UNIT VARIABLE REFRIGERANT FLOW 27 MIXER OUTLET NODE,Air,1
 Node,1233,ZONE HVAC TERMINAL UNIT VARIABLE REFRIGERANT FLOW 27 COOLING COIL OUTLET NODE,Air,1
 Node,1234,ZONE HVAC TERMINAL UNIT VARIABLE REFRIGERANT FLOW 56 MIXER OUTLET NODE,Air,1
 Node,1235,ZONE HVAC TERMINAL UNIT VARIABLE REFRIGERANT FLOW 56 COOLING COIL OUTLET NODE,Air,1
 Node,1236,ZONE HVAC TERMINAL UNIT VARIABLE REFRIGERANT FLOW 66 MIXER OUTLET NODE,Air,1
 Node,1237,ZONE HVAC TERMINAL UNIT VARIABLE REFRIGERANT FLOW 66 COOLING COIL OUTLET NODE,Air,1
 Node,1238,ZONE HVAC TERMINAL UNIT VARIABLE REFRIGERANT FLOW 68 MIXER OUTLET NODE,Air,1
 Node,1239,ZONE HVAC TERMINAL UNIT VARIABLE REFRIGERANT FLOW 68 COOLING COIL OUTLET NODE,Air,1
 Node,1240,ZONE HVAC TERMINAL UNIT VARIABLE REFRIGERANT FLOW 75 MIXER OUTLET NODE,Air,1
 Node,1241,ZONE HVAC TERMINAL UNIT VARIABLE REFRIGERANT FLOW 75 COOLING COIL OUTLET NODE,Air,1
 Node,1242,ZONE HVAC TERMINAL UNIT VARIABLE REFRIGERANT FLOW 88 MIXER OUTLET NODE,Air,1
 Node,1243,ZONE HVAC TERMINAL UNIT VARIABLE REFRIGERANT FLOW 88 COOLING COIL OUTLET NODE,Air,1
 Node,1244,ZONE HVAC TERMINAL UNIT VARIABLE REFRIGERANT FLOW 19 MIXER OUTLET NODE,Air,1
 Node,1245,ZONE HVAC TERMINAL UNIT VARIABLE REFRIGERANT FLOW 19 COOLING COIL OUTLET NODE,Air,1
 Node,1246,ZONE HVAC TERMINAL UNIT VARIABLE REFRIGERANT FLOW 36 MIXER OUTLET NODE,Air,1
 Node,1247,ZONE HVAC TERMINAL UNIT VARIABLE REFRIGERANT FLOW 36 COOLING COIL OUTLET NODE,Air,1
 Node,1248,ZONE HVAC TERMINAL UNIT VARIABLE REFRIGERANT FLOW 48 MIXER OUTLET NODE,Air,1
 Node,1249,ZONE HVAC TERMINAL UNIT VARIABLE REFRIGERANT FLOW 48 COOLING COIL OUTLET NODE,Air,1
 Node,1250,ZONE HVAC TERMINAL UNIT VARIABLE REFRIGERANT FLOW 50 MIXER OUTLET NODE,Air,1
 Node,1251,ZONE HVAC TERMINAL UNIT VARIABLE REFRIGERANT FLOW 50 COOLING COIL OUTLET NODE,Air,1
 Node,1252,ZONE HVAC TERMINAL UNIT VARIABLE REFRIGERANT FLOW 78 MIXER OUTLET NODE,Air,1
 Node,1253,ZONE HVAC TERMINAL UNIT VARIABLE REFRIGERANT FLOW 78 COOLING COIL OUTLET NODE,Air,1
 Node,1254,ZONE HVAC TERMINAL UNIT VARIABLE REFRIGERANT FLOW 79 MIXER OUTLET NODE,Air,1
 Node,1255,ZONE HVAC TERMINAL UNIT VARIABLE REFRIGERANT FLOW 79 COOLING COIL OUTLET NODE,Air,1
 Node,1256,ZONE HVAC TERMINAL UNIT VARIABLE REFRIGERANT FLOW 86 MIXER OUTLET NODE,Air,1
 Node,1257,ZONE HVAC TERMINAL UNIT VARIABLE REFRIGERANT FLOW 86 COOLING COIL OUTLET NODE,Air,1
 Node,1258,ZONE HVAC TERMINAL UNIT VARIABLE REFRIGERANT FLOW 90 MIXER OUTLET NODE,Air,1
 Node,1259,ZONE HVAC TERMINAL UNIT VARIABLE REFRIGERANT FLOW 90 COOLING COIL OUTLET NODE,Air,1
 Node,1260,ZONE HVAC TERMINAL UNIT VARIABLE REFRIGERANT FLOW 14 MIXER OUTLET NODE,Air,1
 Node,1261,ZONE HVAC TERMINAL UNIT VARIABLE REFRIGERANT FLOW 14 COOLING COIL OUTLET NODE,Air,1
 Node,1262,ZONE HVAC TERMINAL UNIT VARIABLE REFRIGERANT FLOW 21 MIXER OUTLET NODE,Air,1
 Node,1263,ZONE HVAC TERMINAL UNIT VARIABLE REFRIGERANT FLOW 21 COOLING COIL OUTLET NODE,Air,1
 Node,1264,ZONE HVAC TERMINAL UNIT VARIABLE REFRIGERANT FLOW 35 MIXER OUTLET NODE,Air,1
 Node,1265,ZONE HVAC TERMINAL UNIT VARIABLE REFRIGERANT FLOW 35 COOLING COIL OUTLET NODE,Air,1
 Node,1266,ZONE HVAC TERMINAL UNIT VARIABLE REFRIGERANT FLOW 37 MIXER OUTLET NODE,Air,1
 Node,1267,ZONE HVAC TERMINAL UNIT VARIABLE REFRIGERANT FLOW 37 COOLING COIL OUTLET NODE,Air,1
 Node,1268,ZONE HVAC TERMINAL UNIT VARIABLE REFRIGERANT FLOW 49 MIXER OUTLET NODE,Air,1
 Node,1269,ZONE HVAC TERMINAL UNIT VARIABLE REFRIGERANT FLOW 49 COOLING COIL OUTLET NODE,Air,1
 Node,1270,ZONE HVAC TERMINAL UNIT VARIABLE REFRIGERANT FLOW 77 MIXER OUTLET NODE,Air,1
 Node,1271,ZONE HVAC TERMINAL UNIT VARIABLE REFRIGERANT FLOW 77 COOLING COIL OUTLET NODE,Air,1
 Node,1272,ZONE HVAC TERMINAL UNIT VARIABLE REFRIGERANT FLOW 80 MIXER OUTLET NODE,Air,1
 Node,1273,ZONE HVAC TERMINAL UNIT VARIABLE REFRIGERANT FLOW 80 COOLING COIL OUTLET NODE,Air,1
 Node,1274,ZONE HVAC TERMINAL UNIT VARIABLE REFRIGERANT FLOW 84 MIXER OUTLET NODE,Air,1
 Node,1275,ZONE HVAC TERMINAL UNIT VARIABLE REFRIGERANT FLOW 84 COOLING COIL OUTLET NODE,Air,1
 Node,1276,ZONE HVAC TERMINAL UNIT VARIABLE REFRIGERANT FLOW 13 MIXER OUTLET NODE,Air,1
 Node,1277,ZONE HVAC TERMINAL UNIT VARIABLE REFRIGERANT FLOW 13 COOLING COIL OUTLET NODE,Air,1
 Node,1278,ZONE HVAC TERMINAL UNIT VARIABLE REFRIGERANT FLOW 22 MIXER OUTLET NODE,Air,1
 Node,1279,ZONE HVAC TERMINAL UNIT VARIABLE REFRIGERANT FLOW 22 COOLING COIL OUTLET NODE,Air,1
 Node,1280,ZONE HVAC TERMINAL UNIT VARIABLE REFRIGERANT FLOW 40 MIXER OUTLET NODE,Air,1
 Node,1281,ZONE HVAC TERMINAL UNIT VARIABLE REFRIGERANT FLOW 40 COOLING COIL OUTLET NODE,Air,1
 Node,1282,ZONE HVAC TERMINAL UNIT VARIABLE REFRIGERANT FLOW 41 MIXER OUTLET NODE,Air,1
 Node,1283,ZONE HVAC TERMINAL UNIT VARIABLE REFRIGERANT FLOW 41 COOLING COIL OUTLET NODE,Air,1
 Node,1284,ZONE HVAC TERMINAL UNIT VARIABLE REFRIGERANT FLOW 44 MIXER OUTLET NODE,Air,1
 Node,1285,ZONE HVAC TERMINAL UNIT VARIABLE REFRIGERANT FLOW 44 COOLING COIL OUTLET NODE,Air,1
 Node,1286,ZONE HVAC TERMINAL UNIT VARIABLE REFRIGERANT FLOW 61 MIXER OUTLET NODE,Air,1
 Node,1287,ZONE HVAC TERMINAL UNIT VARIABLE REFRIGERANT FLOW 61 COOLING COIL OUTLET NODE,Air,1
 Node,1288,ZONE HVAC TERMINAL UNIT VARIABLE REFRIGERANT FLOW 62 MIXER OUTLET NODE,Air,1
 Node,1289,ZONE HVAC TERMINAL UNIT VARIABLE REFRIGERANT FLOW 62 COOLING COIL OUTLET NODE,Air,1
 Node,1290,ZONE HVAC TERMINAL UNIT VARIABLE REFRIGERANT FLOW 81 MIXER OUTLET NODE,Air,1
 Node,1291,ZONE HVAC TERMINAL UNIT VARIABLE REFRIGERANT FLOW 81 COOLING COIL OUTLET NODE,Air,1
 Node,1292,ZONE HVAC TERMINAL UNIT VARIABLE REFRIGERANT FLOW 32 MIXER OUTLET NODE,Air,1
 Node,1293,ZONE HVAC TERMINAL UNIT VARIABLE REFRIGERANT FLOW 32 COOLING COIL OUTLET NODE,Air,1
 Node,1294,ZONE HVAC TERMINAL UNIT VARIABLE REFRIGERANT FLOW 39 MIXER OUTLET NODE,Air,1
 Node,1295,ZONE HVAC TERMINAL UNIT VARIABLE REFRIGERANT FLOW 39 COOLING COIL OUTLET NODE,Air,1
 Node,1296,ZONE HVAC TERMINAL UNIT VARIABLE REFRIGERANT FLOW 70 MIXER OUTLET NODE,Air,1
 Node,1297,ZONE HVAC TERMINAL UNIT VARIABLE REFRIGERANT FLOW 70 COOLING COIL OUTLET NODE,Air,1
 Node,1298,ZONE HVAC TERMINAL UNIT VARIABLE REFRIGERANT FLOW 73 MIXER OUTLET NODE,Air,1
 Node,1299,ZONE HVAC TERMINAL UNIT VARIABLE REFRIGERANT FLOW 73 COOLING COIL OUTLET NODE,Air,1
 Node,1300,ZONE HVAC TERMINAL UNIT VARIABLE REFRIGERANT FLOW 74 MIXER OUTLET NODE,Air,1
 Node,1301,ZONE HVAC TERMINAL UNIT VARIABLE REFRIGERANT FLOW 74 COOLING COIL OUTLET NODE,Air,1
 Node,1302,ZONE HVAC TERMINAL UNIT VARIABLE REFRIGERANT FLOW 82 MIXER OUTLET NODE,Air,1
 Node,1303,ZONE HVAC TERMINAL UNIT VARIABLE REFRIGERANT FLOW 82 COOLING COIL OUTLET NODE,Air,1
 Node,1304,ZONE HVAC TERMINAL UNIT VARIABLE REFRIGERANT FLOW 87 MIXER OUTLET NODE,Air,1
 Node,1305,ZONE HVAC TERMINAL UNIT VARIABLE REFRIGERANT FLOW 87 COOLING COIL OUTLET NODE,Air,1
 Node,1306,ZONE HVAC TERMINAL UNIT VARIABLE REFRIGERANT FLOW 89 MIXER OUTLET NODE,Air,1
 Node,1307,ZONE HVAC TERMINAL UNIT VARIABLE REFRIGERANT FLOW 89 COOLING COIL OUTLET NODE,Air,1
 Node,1308,ZONE HVAC TERMINAL UNIT VARIABLE REFRIGERANT FLOW 17 MIXER OUTLET NODE,Air,1
 Node,1309,ZONE HVAC TERMINAL UNIT VARIABLE REFRIGERANT FLOW 17 COOLING COIL OUTLET NODE,Air,1
 Node,1310,ZONE HVAC TERMINAL UNIT VARIABLE REFRIGERANT FLOW 23 MIXER OUTLET NODE,Air,1
 Node,1311,ZONE HVAC TERMINAL UNIT VARIABLE REFRIGERANT FLOW 23 COOLING COIL OUTLET NODE,Air,1
 Node,1312,ZONE HVAC TERMINAL UNIT VARIABLE REFRIGERANT FLOW 31 MIXER OUTLET NODE,Air,1
 Node,1313,ZONE HVAC TERMINAL UNIT VARIABLE REFRIGERANT FLOW 31 COOLING COIL OUTLET NODE,Air,1
 Node,1314,ZONE HVAC TERMINAL UNIT VARIABLE REFRIGERANT FLOW 34 MIXER OUTLET NODE,Air,1
 Node,1315,ZONE HVAC TERMINAL UNIT VARIABLE REFRIGERANT FLOW 34 COOLING COIL OUTLET NODE,Air,1
 Node,1316,ZONE HVAC TERMINAL UNIT VARIABLE REFRIGERANT FLOW 53 MIXER OUTLET NODE,Air,1
 Node,1317,ZONE HVAC TERMINAL UNIT VARIABLE REFRIGERANT FLOW 53 COOLING COIL OUTLET NODE,Air,1
 Node,1318,ZONE HVAC TERMINAL UNIT VARIABLE REFRIGERANT FLOW 59 MIXER OUTLET NODE,Air,1
 Node,1319,ZONE HVAC TERMINAL UNIT VARIABLE REFRIGERANT FLOW 59 COOLING COIL OUTLET NODE,Air,1
 Node,1320,ZONE HVAC TERMINAL UNIT VARIABLE REFRIGERANT FLOW 69 MIXER OUTLET NODE,Air,1
 Node,1321,ZONE HVAC TERMINAL UNIT VARIABLE REFRIGERANT FLOW 69 COOLING COIL OUTLET NODE,Air,1
 Node,1322,ZONE HVAC TERMINAL UNIT VARIABLE REFRIGERANT FLOW 76 MIXER OUTLET NODE,Air,1
 Node,1323,ZONE HVAC TERMINAL UNIT VARIABLE REFRIGERANT FLOW 76 COOLING COIL OUTLET NODE,Air,1
 Node,1324,ZONE HVAC TERMINAL UNIT VARIABLE REFRIGERANT FLOW 29 MIXER OUTLET NODE,Air,1
 Node,1325,ZONE HVAC TERMINAL UNIT VARIABLE REFRIGERANT FLOW 29 COOLING COIL OUTLET NODE,Air,1
 Node,1326,ZONE HVAC TERMINAL UNIT VARIABLE REFRIGERANT FLOW 30 MIXER OUTLET NODE,Air,1
 Node,1327,ZONE HVAC TERMINAL UNIT VARIABLE REFRIGERANT FLOW 30 COOLING COIL OUTLET NODE,Air,1
 Node,1328,ZONE HVAC TERMINAL UNIT VARIABLE REFRIGERANT FLOW 33 MIXER OUTLET NODE,Air,1
 Node,1329,ZONE HVAC TERMINAL UNIT VARIABLE REFRIGERANT FLOW 33 COOLING COIL OUTLET NODE,Air,1
 Node,1330,ZONE HVAC TERMINAL UNIT VARIABLE REFRIGERANT FLOW 42 MIXER OUTLET NODE,Air,1
 Node,1331,ZONE HVAC TERMINAL UNIT VARIABLE REFRIGERANT FLOW 42 COOLING COIL OUTLET NODE,Air,1
 Node,1332,ZONE HVAC TERMINAL UNIT VARIABLE REFRIGERANT FLOW 45 MIXER OUTLET NODE,Air,1
 Node,1333,ZONE HVAC TERMINAL UNIT VARIABLE REFRIGERANT FLOW 45 COOLING COIL OUTLET NODE,Air,1
 Node,1334,ZONE HVAC TERMINAL UNIT VARIABLE REFRIGERANT FLOW 46 MIXER OUTLET NODE,Air,1
 Node,1335,ZONE HVAC TERMINAL UNIT VARIABLE REFRIGERANT FLOW 46 COOLING COIL OUTLET NODE,Air,1
 Node,1336,ZONE HVAC TERMINAL UNIT VARIABLE REFRIGERANT FLOW 47 MIXER OUTLET NODE,Air,1
 Node,1337,ZONE HVAC TERMINAL UNIT VARIABLE REFRIGERANT FLOW 47 COOLING COIL OUTLET NODE,Air,1
 Node,1338,ZONE HVAC TERMINAL UNIT VARIABLE REFRIGERANT FLOW 64 MIXER OUTLET NODE,Air,1
 Node,1339,ZONE HVAC TERMINAL UNIT VARIABLE REFRIGERANT FLOW 64 COOLING COIL OUTLET NODE,Air,1
 Node,1340,ZONE HVAC TERMINAL UNIT VARIABLE REFRIGERANT FLOW 2 MIXER OUTLET NODE,Air,1
 Node,1341,ZONE HVAC TERMINAL UNIT VARIABLE REFRIGERANT FLOW 2 COOLING COIL OUTLET NODE,Air,1
 Node,1342,ZONE HVAC TERMINAL UNIT VARIABLE REFRIGERANT FLOW 6 MIXER OUTLET NODE,Air,1
 Node,1343,ZONE HVAC TERMINAL UNIT VARIABLE REFRIGERANT FLOW 6 COOLING COIL OUTLET NODE,Air,1
 Node,1344,ZONE HVAC TERMINAL UNIT VARIABLE REFRIGERANT FLOW 7 MIXER OUTLET NODE,Air,1
 Node,1345,ZONE HVAC TERMINAL UNIT VARIABLE REFRIGERANT FLOW 7 COOLING COIL OUTLET NODE,Air,1
 Node,1346,ZONE HVAC TERMINAL UNIT VARIABLE REFRIGERANT FLOW 10 MIXER OUTLET NODE,Air,1
 Node,1347,ZONE HVAC TERMINAL UNIT VARIABLE REFRIGERANT FLOW 10 COOLING COIL OUTLET NODE,Air,1
 Node,1348,ZONE HVAC TERMINAL UNIT VARIABLE REFRIGERANT FLOW 5 MIXER OUTLET NODE,Air,1
 Node,1349,ZONE HVAC TERMINAL UNIT VARIABLE REFRIGERANT FLOW 5 COOLING COIL OUTLET NODE,Air,1
 Node,1350,ZONE HVAC TERMINAL UNIT VARIABLE REFRIGERANT FLOW 9 MIXER OUTLET NODE,Air,1
 Node,1351,ZONE HVAC TERMINAL UNIT VARIABLE REFRIGERANT FLOW 9 COOLING COIL OUTLET NODE,Air,1
 Node,1352,ZONE HVAC TERMINAL UNIT VARIABLE REFRIGERANT FLOW 11 MIXER OUTLET NODE,Air,1
 Node,1353,ZONE HVAC TERMINAL UNIT VARIABLE REFRIGERANT FLOW 11 COOLING COIL OUTLET NODE,Air,1
 Node,1354,ZONE HVAC TERMINAL UNIT VARIABLE REFRIGERANT FLOW 8 MIXER OUTLET NODE,Air,1
 Node,1355,ZONE HVAC TERMINAL UNIT VARIABLE REFRIGERANT FLOW 8 COOLING COIL OUTLET NODE,Air,1
 Node,1356,ZONE HVAC TERMINAL UNIT VARIABLE REFRIGERANT FLOW 4 MIXER OUTLET NODE,Air,1
 Node,1357,ZONE HVAC TERMINAL UNIT VARIABLE REFRIGERANT FLOW 4 COOLING COIL OUTLET NODE,Air,1
 Node,1358,ZONE HVAC TERMINAL UNIT VARIABLE REFRIGERANT FLOW 3 MIXER OUTLET NODE,Air,1
 Node,1359,ZONE HVAC TERMINAL UNIT VARIABLE REFRIGERANT FLOW 3 COOLING COIL OUTLET NODE,Air,1
 Node,1360,ZONE HVAC TERMINAL UNIT VARIABLE REFRIGERANT FLOW 1 HEATING COIL OUTLET NODE,Air,1
 Node,1361,ZONE HVAC TERMINAL UNIT VARIABLE REFRIGERANT FLOW 18 HEATING COIL OUTLET NODE,Air,1
 Node,1362,ZONE HVAC TERMINAL UNIT VARIABLE REFRIGERANT FLOW 25 HEATING COIL OUTLET NODE,Air,1
 Node,1363,ZONE HVAC TERMINAL UNIT VARIABLE REFRIGERANT FLOW 28 HEATING COIL OUTLET NODE,Air,1
 Node,1364,ZONE HVAC TERMINAL UNIT VARIABLE REFRIGERANT FLOW 43 HEATING COIL OUTLET NODE,Air,1
 Node,1365,ZONE HVAC TERMINAL UNIT VARIABLE REFRIGERANT FLOW 51 HEATING COIL OUTLET NODE,Air,1
 Node,1366,ZONE HVAC TERMINAL UNIT VARIABLE REFRIGERANT FLOW 63 HEATING COIL OUTLET NODE,Air,1
 Node,1367,ZONE HVAC TERMINAL UNIT VARIABLE REFRIGERANT FLOW 65 HEATING COIL OUTLET NODE,Air,1
 Node,1368,ZONE HVAC TERMINAL UNIT VARIABLE REFRIGERANT FLOW 71 HEATING COIL OUTLET NODE,Air,1
 Node,1369,ZONE HVAC TERMINAL UNIT VARIABLE REFRIGERANT FLOW 12 HEATING COIL OUTLET NODE,Air,1
 Node,1370,ZONE HVAC TERMINAL UNIT VARIABLE REFRIGERANT FLOW 20 HEATING COIL OUTLET NODE,Air,1
 Node,1371,ZONE HVAC TERMINAL UNIT VARIABLE REFRIGERANT FLOW 38 HEATING COIL OUTLET NODE,Air,1
 Node,1372,ZONE HVAC TERMINAL UNIT VARIABLE REFRIGERANT FLOW 54 HEATING COIL OUTLET NODE,Air,1
 Node,1373,ZONE HVAC TERMINAL UNIT VARIABLE REFRIGERANT FLOW 55 HEATING COIL OUTLET NODE,Air,1
 Node,1374,ZONE HVAC TERMINAL UNIT VARIABLE REFRIGERANT FLOW 58 HEATING COIL OUTLET NODE,Air,1
 Node,1375,ZONE HVAC TERMINAL UNIT VARIABLE REFRIGERANT FLOW 72 HEATING COIL OUTLET NODE,Air,1
 Node,1376,ZONE HVAC TERMINAL UNIT VARIABLE REFRIGERANT FLOW 16 HEATING COIL OUTLET NODE,Air,1
 Node,1377,ZONE HVAC TERMINAL UNIT VARIABLE REFRIGERANT FLOW 26 HEATING COIL OUTLET NODE,Air,1
 Node,1378,ZONE HVAC TERMINAL UNIT VARIABLE REFRIGERANT FLOW 52 HEATING COIL OUTLET NODE,Air,1
 Node,1379,ZONE HVAC TERMINAL UNIT VARIABLE REFRIGERANT FLOW 57 HEATING COIL OUTLET NODE,Air,1
 Node,1380,ZONE HVAC TERMINAL UNIT VARIABLE REFRIGERANT FLOW 60 HEATING COIL OUTLET NODE,Air,1
 Node,1381,ZONE HVAC TERMINAL UNIT VARIABLE REFRIGERANT FLOW 67 HEATING COIL OUTLET NODE,Air,1
 Node,1382,ZONE HVAC TERMINAL UNIT VARIABLE REFRIGERANT FLOW 83 HEATING COIL OUTLET NODE,Air,1
 Node,1383,ZONE HVAC TERMINAL UNIT VARIABLE REFRIGERANT FLOW 85 HEATING COIL OUTLET NODE,Air,1
 Node,1384,ZONE HVAC TERMINAL UNIT VARIABLE REFRIGERANT FLOW 15 HEATING COIL OUTLET NODE,Air,1
 Node,1385,ZONE HVAC TERMINAL UNIT VARIABLE REFRIGERANT FLOW 24 HEATING COIL OUTLET NODE,Air,1
 Node,1386,ZONE HVAC TERMINAL UNIT VARIABLE REFRIGERANT FLOW 27 HEATING COIL OUTLET NODE,Air,1
 Node,1387,ZONE HVAC TERMINAL UNIT VARIABLE REFRIGERANT FLOW 56 HEATING COIL OUTLET NODE,Air,1
 Node,1388,ZONE HVAC TERMINAL UNIT VARIABLE REFRIGERANT FLOW 66 HEATING COIL OUTLET NODE,Air,1
 Node,1389,ZONE HVAC TERMINAL UNIT VARIABLE REFRIGERANT FLOW 68 HEATING COIL OUTLET NODE,Air,1
 Node,1390,ZONE HVAC TERMINAL UNIT VARIABLE REFRIGERANT FLOW 75 HEATING COIL OUTLET NODE,Air,1
 Node,1391,ZONE HVAC TERMINAL UNIT VARIABLE REFRIGERANT FLOW 88 HEATING COIL OUTLET NODE,Air,1
 Node,1392,ZONE HVAC TERMINAL UNIT VARIABLE REFRIGERANT FLOW 19 HEATING COIL OUTLET NODE,Air,1
 Node,1393,ZONE HVAC TERMINAL UNIT VARIABLE REFRIGERANT FLOW 36 HEATING COIL OUTLET NODE,Air,1
 Node,1394,ZONE HVAC TERMINAL UNIT VARIABLE REFRIGERANT FLOW 48 HEATING COIL OUTLET NODE,Air,1
 Node,1395,ZONE HVAC TERMINAL UNIT VARIABLE REFRIGERANT FLOW 50 HEATING COIL OUTLET NODE,Air,1
 Node,1396,ZONE HVAC TERMINAL UNIT VARIABLE REFRIGERANT FLOW 78 HEATING COIL OUTLET NODE,Air,1
 Node,1397,ZONE HVAC TERMINAL UNIT VARIABLE REFRIGERANT FLOW 79 HEATING COIL OUTLET NODE,Air,1
 Node,1398,ZONE HVAC TERMINAL UNIT VARIABLE REFRIGERANT FLOW 86 HEATING COIL OUTLET NODE,Air,1
 Node,1399,ZONE HVAC TERMINAL UNIT VARIABLE REFRIGERANT FLOW 90 HEATING COIL OUTLET NODE,Air,1
 Node,1400,ZONE HVAC TERMINAL UNIT VARIABLE REFRIGERANT FLOW 14 HEATING COIL OUTLET NODE,Air,1
 Node,1401,ZONE HVAC TERMINAL UNIT VARIABLE REFRIGERANT FLOW 21 HEATING COIL OUTLET NODE,Air,1
 Node,1402,ZONE HVAC TERMINAL UNIT VARIABLE REFRIGERANT FLOW 35 HEATING COIL OUTLET NODE,Air,1
 Node,1403,ZONE HVAC TERMINAL UNIT VARIABLE REFRIGERANT FLOW 37 HEATING COIL OUTLET NODE,Air,1
 Node,1404,ZONE HVAC TERMINAL UNIT VARIABLE REFRIGERANT FLOW 49 HEATING COIL OUTLET NODE,Air,1
 Node,1405,ZONE HVAC TERMINAL UNIT VARIABLE REFRIGERANT FLOW 77 HEATING COIL OUTLET NODE,Air,1
 Node,1406,ZONE HVAC TERMINAL UNIT VARIABLE REFRIGERANT FLOW 80 HEATING COIL OUTLET NODE,Air,1
 Node,1407,ZONE HVAC TERMINAL UNIT VARIABLE REFRIGERANT FLOW 84 HEATING COIL OUTLET NODE,Air,1
 Node,1408,ZONE HVAC TERMINAL UNIT VARIABLE REFRIGERANT FLOW 13 HEATING COIL OUTLET NODE,Air,1
 Node,1409,ZONE HVAC TERMINAL UNIT VARIABLE REFRIGERANT FLOW 22 HEATING COIL OUTLET NODE,Air,1
 Node,1410,ZONE HVAC TERMINAL UNIT VARIABLE REFRIGERANT FLOW 40 HEATING COIL OUTLET NODE,Air,1
 Node,1411,ZONE HVAC TERMINAL UNIT VARIABLE REFRIGERANT FLOW 41 HEATING COIL OUTLET NODE,Air,1
 Node,1412,ZONE HVAC TERMINAL UNIT VARIABLE REFRIGERANT FLOW 44 HEATING COIL OUTLET NODE,Air,1
 Node,1413,ZONE HVAC TERMINAL UNIT VARIABLE REFRIGERANT FLOW 61 HEATING COIL OUTLET NODE,Air,1
 Node,1414,ZONE HVAC TERMINAL UNIT VARIABLE REFRIGERANT FLOW 62 HEATING COIL OUTLET NODE,Air,1
 Node,1415,ZONE HVAC TERMINAL UNIT VARIABLE REFRIGERANT FLOW 81 HEATING COIL OUTLET NODE,Air,1
 Node,1416,ZONE HVAC TERMINAL UNIT VARIABLE REFRIGERANT FLOW 32 HEATING COIL OUTLET NODE,Air,1
 Node,1417,ZONE HVAC TERMINAL UNIT VARIABLE REFRIGERANT FLOW 39 HEATING COIL OUTLET NODE,Air,1
 Node,1418,ZONE HVAC TERMINAL UNIT VARIABLE REFRIGERANT FLOW 70 HEATING COIL OUTLET NODE,Air,1
 Node,1419,ZONE HVAC TERMINAL UNIT VARIABLE REFRIGERANT FLOW 73 HEATING COIL OUTLET NODE,Air,1
 Node,1420,ZONE HVAC TERMINAL UNIT VARIABLE REFRIGERANT FLOW 74 HEATING COIL OUTLET NODE,Air,1
 Node,1421,ZONE HVAC TERMINAL UNIT VARIABLE REFRIGERANT FLOW 82 HEATING COIL OUTLET NODE,Air,1
 Node,1422,ZONE HVAC TERMINAL UNIT VARIABLE REFRIGERANT FLOW 87 HEATING COIL OUTLET NODE,Air,1
 Node,1423,ZONE HVAC TERMINAL UNIT VARIABLE REFRIGERANT FLOW 89 HEATING COIL OUTLET NODE,Air,1
 Node,1424,ZONE HVAC TERMINAL UNIT VARIABLE REFRIGERANT FLOW 17 HEATING COIL OUTLET NODE,Air,1
 Node,1425,ZONE HVAC TERMINAL UNIT VARIABLE REFRIGERANT FLOW 23 HEATING COIL OUTLET NODE,Air,1
 Node,1426,ZONE HVAC TERMINAL UNIT VARIABLE REFRIGERANT FLOW 31 HEATING COIL OUTLET NODE,Air,1
 Node,1427,ZONE HVAC TERMINAL UNIT VARIABLE REFRIGERANT FLOW 34 HEATING COIL OUTLET NODE,Air,1
[...]
 Non-Parent Node Connection,DU_BT=SPACE FUNCTION_ST=DWELLING UNITS GENERAL_FL=BUILDING STORY 7_SCHG 6 PTAC HEATING COIL OUTLET NODE,COIL:HEATING:ELECTRIC,COIL HEATING ELECTRIC 77,Outlet,1
 Non-Parent Node Connection,DU_BT=SPACE FUNCTION_ST=DWELLING UNITS GENERAL_FL=BUILDING STORY 7_SCHG 7 PTAC COOLING COIL OUTLET NODE,COIL:HEATING:ELECTRIC,COIL HEATING ELECTRIC 79,Inlet,1
 Non-Parent Node Connection,DU_BT=SPACE FUNCTION_ST=DWELLING UNITS GENERAL_FL=BUILDING STORY 7_SCHG 7 PTAC HEATING COIL OUTLET NODE,COIL:HEATING:ELECTRIC,COIL HEATING ELECTRIC 79,Outlet,1
 Non-Parent Node Connection,DU_BT=SPACE FUNCTION_ST=DWELLING UNITS GENERAL_FL=BUILDING STORY 8_SCHG PTAC COOLING COIL OUTLET NODE,COIL:HEATING:ELECTRIC,COIL HEATING ELECTRIC 7,Inlet,1
 Non-Parent Node Connection,DU_BT=SPACE FUNCTION_ST=DWELLING UNITS GENERAL_FL=BUILDING STORY 8_SCHG PTAC HEATING COIL OUTLET NODE,COIL:HEATING:ELECTRIC,COIL HEATING ELECTRIC 7,Outlet,1
 Non-Parent Node Connection,DU_BT=SPACE FUNCTION_ST=DWELLING UNITS GENERAL_FL=BUILDING STORY 8_SCHG 1 PTAC COOLING COIL OUTLET NODE,COIL:HEATING:ELECTRIC,COIL HEATING ELECTRIC 13,Inlet,1
 Non-Parent Node Connection,DU_BT=SPACE FUNCTION_ST=DWELLING UNITS GENERAL_FL=BUILDING STORY 8_SCHG 1 PTAC HEATING COIL OUTLET NODE,COIL:HEATING:ELECTRIC,COIL HEATING ELECTRIC 13,Outlet,1
 Non-Parent Node Connection,DU_BT=SPACE FUNCTION_ST=DWELLING UNITS GENERAL_FL=BUILDING STORY 8_SCHG 2 PTAC COOLING COIL OUTLET NODE,COIL:HEATING:ELECTRIC,COIL HEATING ELECTRIC 21,Inlet,1
 Non-Parent Node Connection,DU_BT=SPACE FUNCTION_ST=DWELLING UNITS GENERAL_FL=BUILDING STORY 8_SCHG 2 PTAC HEATING COIL OUTLET NODE,COIL:HEATING:ELECTRIC,COIL HEATING ELECTRIC 21,Outlet,1
 Non-Parent Node Connection,DU_BT=SPACE FUNCTION_ST=DWELLING UNITS GENERAL_FL=BUILDING STORY 8_SCHG 3 PTAC COOLING COIL OUTLET NODE,COIL:HEATING:ELECTRIC,COIL HEATING ELECTRIC 24,Inlet,1
 Non-Parent Node Connection,DU_BT=SPACE FUNCTION_ST=DWELLING UNITS GENERAL_FL=BUILDING STORY 8_SCHG 3 PTAC HEATING COIL OUTLET NODE,COIL:HEATING:ELECTRIC,COIL HEATING ELECTRIC 24,Outlet,1
 Non-Parent Node Connection,DU_BT=SPACE FUNCTION_ST=DWELLING UNITS GENERAL_FL=BUILDING STORY 8_SCHG 4 PTAC COOLING COIL OUTLET NODE,COIL:HEATING:ELECTRIC,COIL HEATING ELECTRIC 43,Inlet,1
 Non-Parent Node Connection,DU_BT=SPACE FUNCTION_ST=DWELLING UNITS GENERAL_FL=BUILDING STORY 8_SCHG 4 PTAC HEATING COIL OUTLET NODE,COIL:HEATING:ELECTRIC,COIL HEATING ELECTRIC 43,Outlet,1
 Non-Parent Node Connection,DU_BT=SPACE FUNCTION_ST=DWELLING UNITS GENERAL_FL=BUILDING STORY 8_SCHG 5 PTAC COOLING COIL OUTLET NODE,COIL:HEATING:ELECTRIC,COIL HEATING ELECTRIC 49,Inlet,1
 Non-Parent Node Connection,DU_BT=SPACE FUNCTION_ST=DWELLING UNITS GENERAL_FL=BUILDING STORY 8_SCHG 5 PTAC HEATING COIL OUTLET NODE,COIL:HEATING:ELECTRIC,COIL HEATING ELECTRIC 49,Outlet,1
 Non-Parent Node Connection,DU_BT=SPACE FUNCTION_ST=DWELLING UNITS GENERAL_FL=BUILDING STORY 8_SCHG 6 PTAC COOLING COIL OUTLET NODE,COIL:HEATING:ELECTRIC,COIL HEATING ELECTRIC 59,Inlet,1
 Non-Parent Node Connection,DU_BT=SPACE FUNCTION_ST=DWELLING UNITS GENERAL_FL=BUILDING STORY 8_SCHG 6 PTAC HEATING COIL OUTLET NODE,COIL:HEATING:ELECTRIC,COIL HEATING ELECTRIC 59,Outlet,1
 Non-Parent Node Connection,DU_BT=SPACE FUNCTION_ST=DWELLING UNITS GENERAL_FL=BUILDING STORY 8_SCHG 7 PTAC COOLING COIL OUTLET NODE,COIL:HEATING:ELECTRIC,COIL HEATING ELECTRIC 66,Inlet,1
 Non-Parent Node Connection,DU_BT=SPACE FUNCTION_ST=DWELLING UNITS GENERAL_FL=BUILDING STORY 8_SCHG 7 PTAC HEATING COIL OUTLET NODE,COIL:HEATING:ELECTRIC,COIL HEATING ELECTRIC 66,Outlet,1
 Non-Parent Node Connection,DU_BT=SPACE FUNCTION_ST=DWELLING UNITS GENERAL_FL=BUILDING STORY 9_SCHG PTAC COOLING COIL OUTLET NODE,COIL:HEATING:ELECTRIC,COIL HEATING ELECTRIC 19,Inlet,1
 Non-Parent Node Connection,DU_BT=SPACE FUNCTION_ST=DWELLING UNITS GENERAL_FL=BUILDING STORY 9_SCHG PTAC HEATING COIL OUTLET NODE,COIL:HEATING:ELECTRIC,COIL HEATING ELECTRIC 19,Outlet,1
 Non-Parent Node Connection,DU_BT=SPACE FUNCTION_ST=DWELLING UNITS GENERAL_FL=BUILDING STORY 9_SCHG 1 PTAC COOLING COIL OUTLET NODE,COIL:HEATING:ELECTRIC,COIL HEATING ELECTRIC 20,Inlet,1
 Non-Parent Node Connection,DU_BT=SPACE FUNCTION_ST=DWELLING UNITS GENERAL_FL=BUILDING STORY 9_SCHG 1 PTAC HEATING COIL OUTLET NODE,COIL:HEATING:ELECTRIC,COIL HEATING ELECTRIC 20,Outlet,1
 Non-Parent Node Connection,DU_BT=SPACE FUNCTION_ST=DWELLING UNITS GENERAL_FL=BUILDING STORY 9_SCHG 2 PTAC COOLING COIL OUTLET NODE,COIL:HEATING:ELECTRIC,COIL HEATING ELECTRIC 23,Inlet,1
 Non-Parent Node Connection,DU_BT=SPACE FUNCTION_ST=DWELLING UNITS GENERAL_FL=BUILDING STORY 9_SCHG 2 PTAC HEATING COIL OUTLET NODE,COIL:HEATING:ELECTRIC,COIL HEATING ELECTRIC 23,Outlet,1
 Non-Parent Node Connection,DU_BT=SPACE FUNCTION_ST=DWELLING UNITS GENERAL_FL=BUILDING STORY 9_SCHG 3 PTAC COOLING COIL OUTLET NODE,COIL:HEATING:ELECTRIC,COIL HEATING ELECTRIC 32,Inlet,1
 Non-Parent Node Connection,DU_BT=SPACE FUNCTION_ST=DWELLING UNITS GENERAL_FL=BUILDING STORY 9_SCHG 3 PTAC HEATING COIL OUTLET NODE,COIL:HEATING:ELECTRIC,COIL HEATING ELECTRIC 32,Outlet,1
 Non-Parent Node Connection,DU_BT=SPACE FUNCTION_ST=DWELLING UNITS GENERAL_FL=BUILDING STORY 9_SCHG 4 PTAC COOLING COIL OUTLET NODE,COIL:HEATING:ELECTRIC,COIL HEATING ELECTRIC 35,Inlet,1
 Non-Parent Node Connection,DU_BT=SPACE FUNCTION_ST=DWELLING UNITS GENERAL_FL=BUILDING STORY 9_SCHG 4 PTAC HEATING COIL OUTLET NODE,COIL:HEATING:ELECTRIC,COIL HEATING ELECTRIC 35,Outlet,1
 Non-Parent Node Connection,DU_BT=SPACE FUNCTION_ST=DWELLING UNITS GENERAL_FL=BUILDING STORY 9_SCHG 5 PTAC COOLING COIL OUTLET NODE,COIL:HEATING:ELECTRIC,COIL HEATING ELECTRIC 36,Inlet,1
 Non-Parent Node Connection,DU_BT=SPACE FUNCTION_ST=DWELLING UNITS GENERAL_FL=BUILDING STORY 9_SCHG 5 PTAC HEATING COIL OUTLET NODE,COIL:HEATING:ELECTRIC,COIL HEATING ELECTRIC 36,Outlet,1
 Non-Parent Node Connection,DU_BT=SPACE FUNCTION_ST=DWELLING UNITS GENERAL_FL=BUILDING STORY 9_SCHG 6 PTAC COOLING COIL OUTLET NODE,COIL:HEATING:ELECTRIC,COIL HEATING ELECTRIC 37,Inlet,1
 Non-Parent Node Connection,DU_BT=SPACE FUNCTION_ST=DWELLING UNITS GENERAL_FL=BUILDING STORY 9_SCHG 6 PTAC HEATING COIL OUTLET NODE,COIL:HEATING:ELECTRIC,COIL HEATING ELECTRIC 37,Outlet,1
 Non-Parent Node Connection,DU_BT=SPACE FUNCTION_ST=DWELLING UNITS GENERAL_FL=BUILDING STORY 9_SCHG 7 PTAC COOLING COIL OUTLET NODE,COIL:HEATING:ELECTRIC,COIL HEATING ELECTRIC 54,Inlet,1
 Non-Parent Node Connection,DU_BT=SPACE FUNCTION_ST=DWELLING UNITS GENERAL_FL=BUILDING STORY 9_SCHG 7 PTAC HEATING COIL OUTLET NODE,COIL:HEATING:ELECTRIC,COIL HEATING ELECTRIC 54,Outlet,1
 Non-Parent Node Connection,NODE 14,COIL:HEATING:ELECTRIC,COIL HEATING ELECTRIC 1,Inlet,1
 Non-Parent Node Connection,NODE 675,COIL:HEATING:ELECTRIC,COIL HEATING ELECTRIC 1,Outlet,1
 Non-Parent Node Connection,NODE 3,COIL:HEATING:ELECTRIC,COIL HEATING ELECTRIC 1,Sensor,1
 Non-Parent Node Connection,NODE 424,COIL:HEATING:ELECTRIC,COIL HEATING ELECTRIC 81,Inlet,1
 Non-Parent Node Connection,NODE 664,COIL:HEATING:ELECTRIC,COIL HEATING ELECTRIC 81,Outlet,1
 Non-Parent Node Connection,NODE 417,COIL:HEATING:ELECTRIC,COIL HEATING ELECTRIC 81,Sensor,1
 Non-Parent Node Connection,NODE 481,COIL:HEATING:ELECTRIC,COIL HEATING ELECTRIC 82,Inlet,1
 Non-Parent Node Connection,NODE 480,COIL:HEATING:ELECTRIC,COIL HEATING ELECTRIC 82,Outlet,1
 Non-Parent Node Connection,NODE 473,COIL:HEATING:ELECTRIC,COIL HEATING ELECTRIC 82,Sensor,1
 Non-Parent Node Connection,NODE 6,AIRLOOPHVAC:ZONEMIXER,AIR LOOP HVAC ZONE MIXER 1,Outlet,1
 Non-Parent Node Connection,NODE 20,AIRLOOPHVAC:ZONEMIXER,AIR LOOP HVAC ZONE MIXER 1,Inlet,1
 Non-Parent Node Connection,NODE 26,AIRLOOPHVAC:ZONEMIXER,AIR LOOP HVAC ZONE MIXER 1,Inlet,1
 Non-Parent Node Connection,NODE 32,AIRLOOPHVAC:ZONEMIXER,AIR LOOP HVAC ZONE MIXER 1,Inlet,1
 Non-Parent Node Connection,NODE 38,AIRLOOPHVAC:ZONEMIXER,AIR LOOP HVAC ZONE MIXER 1,Inlet,1
 Non-Parent Node Connection,NODE 44,AIRLOOPHVAC:ZONEMIXER,AIR LOOP HVAC ZONE MIXER 1,Inlet,1
 Non-Parent Node Connection,NODE 50,AIRLOOPHVAC:ZONEMIXER,AIR LOOP HVAC ZONE MIXER 1,Inlet,1
 Non-Parent Node Connection,NODE 56,AIRLOOPHVAC:ZONEMIXER,AIR LOOP HVAC ZONE MIXER 1,Inlet,1
 Non-Parent Node Connection,NODE 62,AIRLOOPHVAC:ZONEMIXER,AIR LOOP HVAC ZONE MIXER 1,Inlet,1
 Non-Parent Node Connection,NODE 68,AIRLOOPHVAC:ZONEMIXER,AIR LOOP HVAC ZONE MIXER 1,Inlet,1
 Non-Parent Node Connection,NODE 74,AIRLOOPHVAC:ZONEMIXER,AIR LOOP HVAC ZONE MIXER 1,Inlet,1
 Non-Parent Node Connection,NODE 80,AIRLOOPHVAC:ZONEMIXER,AIR LOOP HVAC ZONE MIXER 1,Inlet,1
 Non-Parent Node Connection,NODE 86,AIRLOOPHVAC:ZONEMIXER,AIR LOOP HVAC ZONE MIXER 1,Inlet,1
 Non-Parent Node Connection,NODE 92,AIRLOOPHVAC:ZONEMIXER,AIR LOOP HVAC ZONE MIXER 1,Inlet,1
 Non-Parent Node Connection,NODE 98,AIRLOOPHVAC:ZONEMIXER,AIR LOOP HVAC ZONE MIXER 1,Inlet,1
 Non-Parent Node Connection,NODE 104,AIRLOOPHVAC:ZONEMIXER,AIR LOOP HVAC ZONE MIXER 1,Inlet,1
 Non-Parent Node Connection,NODE 110,AIRLOOPHVAC:ZONEMIXER,AIR LOOP HVAC ZONE MIXER 1,Inlet,1
 Non-Parent Node Connection,NODE 116,AIRLOOPHVAC:ZONEMIXER,AIR LOOP HVAC ZONE MIXER 1,Inlet,1
 Non-Parent Node Connection,NODE 122,AIRLOOPHVAC:ZONEMIXER,AIR LOOP HVAC ZONE MIXER 1,Inlet,1
 Non-Parent Node Connection,NODE 128,AIRLOOPHVAC:ZONEMIXER,AIR LOOP HVAC ZONE MIXER 1,Inlet,1
 Non-Parent Node Connection,NODE 134,AIRLOOPHVAC:ZONEMIXER,AIR LOOP HVAC ZONE MIXER 1,Inlet,1
 Non-Parent Node Connection,NODE 140,AIRLOOPHVAC:ZONEMIXER,AIR LOOP HVAC ZONE MIXER 1,Inlet,1
 Non-Parent Node Connection,NODE 146,AIRLOOPHVAC:ZONEMIXER,AIR LOOP HVAC ZONE MIXER 1,Inlet,1
 Non-Parent Node Connection,NODE 152,AIRLOOPHVAC:ZONEMIXER,AIR LOOP HVAC ZONE MIXER 1,Inlet,1
 Non-Parent Node Connection,NODE 158,AIRLOOPHVAC:ZONEMIXER,AIR LOOP HVAC ZONE MIXER 1,Inlet,1
 Non-Parent Node Connection,NODE 164,AIRLOOPHVAC:ZONEMIXER,AIR LOOP HVAC ZONE MIXER 1,Inlet,1
 Non-Parent Node Connection,NODE 170,AIRLOOPHVAC:ZONEMIXER,AIR LOOP HVAC ZONE MIXER 1,Inlet,1
 Non-Parent Node Connection,NODE 176,AIRLOOPHVAC:ZONEMIXER,AIR LOOP HVAC ZONE MIXER 1,Inlet,1
 Non-Parent Node Connection,NODE 182,AIRLOOPHVAC:ZONEMIXER,AIR LOOP HVAC ZONE MIXER 1,Inlet,1
 Non-Parent Node Connection,NODE 188,AIRLOOPHVAC:ZONEMIXER,AIR LOOP HVAC ZONE MIXER 1,Inlet,1
 Non-Parent Node Connection,NODE 194,AIRLOOPHVAC:ZONEMIXER,AIR LOOP HVAC ZONE MIXER 1,Inlet,1
 Non-Parent Node Connection,NODE 200,AIRLOOPHVAC:ZONEMIXER,AIR LOOP HVAC ZONE MIXER 1,Inlet,1
 Non-Parent Node Connection,NODE 206,AIRLOOPHVAC:ZONEMIXER,AIR LOOP HVAC ZONE MIXER 1,Inlet,1
 Non-Parent Node Connection,NODE 212,AIRLOOPHVAC:ZONEMIXER,AIR LOOP HVAC ZONE MIXER 1,Inlet,1
 Non-Parent Node Connection,NODE 218,AIRLOOPHVAC:ZONEMIXER,AIR LOOP HVAC ZONE MIXER 1,Inlet,1
 Non-Parent Node Connection,NODE 224,AIRLOOPHVAC:ZONEMIXER,AIR LOOP HVAC ZONE MIXER 1,Inlet,1
 Non-Parent Node Connection,NODE 230,AIRLOOPHVAC:ZONEMIXER,AIR LOOP HVAC ZONE MIXER 1,Inlet,1
 Non-Parent Node Connection,NODE 236,AIRLOOPHVAC:ZONEMIXER,AIR LOOP HVAC ZONE MIXER 1,Inlet,1
 Non-Parent Node Connection,NODE 242,AIRLOOPHVAC:ZONEMIXER,AIR LOOP HVAC ZONE MIXER 1,Inlet,1
 Non-Parent Node Connection,NODE 248,AIRLOOPHVAC:ZONEMIXER,AIR LOOP HVAC ZONE MIXER 1,Inlet,1
 Non-Parent Node Connection,NODE 254,AIRLOOPHVAC:ZONEMIXER,AIR LOOP HVAC ZONE MIXER 1,Inlet,1
 Non-Parent Node Connection,NODE 260,AIRLOOPHVAC:ZONEMIXER,AIR LOOP HVAC ZONE MIXER 1,Inlet,1
 Non-Parent Node Connection,NODE 266,AIRLOOPHVAC:ZONEMIXER,AIR LOOP HVAC ZONE MIXER 1,Inlet,1
 Non-Parent Node Connection,NODE 271,AIRLOOPHVAC:ZONEMIXER,AIR LOOP HVAC ZONE MIXER 1,Inlet,1
 Non-Parent Node Connection,NODE 275,AIRLOOPHVAC:ZONEMIXER,AIR LOOP HVAC ZONE MIXER 1,Inlet,1
 Non-Parent Node Connection,NODE 279,AIRLOOPHVAC:ZONEMIXER,AIR LOOP HVAC ZONE MIXER 1,Inlet,1
 Non-Parent Node Connection,NODE 283,AIRLOOPHVAC:ZONEMIXER,AIR LOOP HVAC ZONE MIXER 1,Inlet,1
 Non-Parent Node Connection,NODE 287,AIRLOOPHVAC:ZONEMIXER,AIR LOOP HVAC ZONE MIXER 1,Inlet,1
 Non-Parent Node Connection,NODE 291,AIRLOOPHVAC:ZONEMIXER,AIR LOOP HVAC ZONE MIXER 1,Inlet,1
 Non-Parent Node Connection,NODE 295,AIRLOOPHVAC:ZONEMIXER,AIR LOOP HVAC ZONE MIXER 1,Inlet,1
 Non-Parent Node Connection,NODE 299,AIRLOOPHVAC:ZONEMIXER,AIR LOOP HVAC ZONE MIXER 1,Inlet,1
 Non-Parent Node Connection,NODE 303,AIRLOOPHVAC:ZONEMIXER,AIR LOOP HVAC ZONE MIXER 1,Inlet,1
 Non-Parent Node Connection,NODE 307,AIRLOOPHVAC:ZONEMIXER,AIR LOOP HVAC ZONE MIXER 1,Inlet,1
 Non-Parent Node Connection,NODE 311,AIRLOOPHVAC:ZONEMIXER,AIR LOOP HVAC ZONE MIXER 1,Inlet,1
 Non-Parent Node Connection,NODE 315,AIRLOOPHVAC:ZONEMIXER,AIR LOOP HVAC ZONE MIXER 1,Inlet,1
 Non-Parent Node Connection,NODE 319,AIRLOOPHVAC:ZONEMIXER,AIR LOOP HVAC ZONE MIXER 1,Inlet,1
 Non-Parent Node Connection,NODE 323,AIRLOOPHVAC:ZONEMIXER,AIR LOOP HVAC ZONE MIXER 1,Inlet,1
 Non-Parent Node Connection,NODE 327,AIRLOOPHVAC:ZONEMIXER,AIR LOOP HVAC ZONE MIXER 1,Inlet,1
 Non-Parent Node Connection,NODE 331,AIRLOOPHVAC:ZONEMIXER,AIR LOOP HVAC ZONE MIXER 1,Inlet,1
 Non-Parent Node Connection,NODE 335,AIRLOOPHVAC:ZONEMIXER,AIR LOOP HVAC ZONE MIXER 1,Inlet,1
 Non-Parent Node Connection,NODE 339,AIRLOOPHVAC:ZONEMIXER,AIR LOOP HVAC ZONE MIXER 1,Inlet,1
 Non-Parent Node Connection,NODE 343,AIRLOOPHVAC:ZONEMIXER,AIR LOOP HVAC ZONE MIXER 1,Inlet,1
 Non-Parent Node Connection,NODE 347,AIRLOOPHVAC:ZONEMIXER,AIR LOOP HVAC ZONE MIXER 1,Inlet,1
 Non-Parent Node Connection,NODE 351,AIRLOOPHVAC:ZONEMIXER,AIR LOOP HVAC ZONE MIXER 1,Inlet,1
 Non-Parent Node Connection,NODE 355,AIRLOOPHVAC:ZONEMIXER,AIR LOOP HVAC ZONE MIXER 1,Inlet,1
 Non-Parent Node Connection,NODE 359,AIRLOOPHVAC:ZONEMIXER,AIR LOOP HVAC ZONE MIXER 1,Inlet,1
 Non-Parent Node Connection,NODE 363,AIRLOOPHVAC:ZONEMIXER,AIR LOOP HVAC ZONE MIXER 1,Inlet,1
 Non-Parent Node Connection,NODE 367,AIRLOOPHVAC:ZONEMIXER,AIR LOOP HVAC ZONE MIXER 1,Inlet,1
 Non-Parent Node Connection,NODE 371,AIRLOOPHVAC:ZONEMIXER,AIR LOOP HVAC ZONE MIXER 1,Inlet,1
 Non-Parent Node Connection,NODE 375,AIRLOOPHVAC:ZONEMIXER,AIR LOOP HVAC ZONE MIXER 1,Inlet,1
 Non-Parent Node Connection,NODE 379,AIRLOOPHVAC:ZONEMIXER,AIR LOOP HVAC ZONE MIXER 1,Inlet,1
 Non-Parent Node Connection,NODE 383,AIRLOOPHVAC:ZONEMIXER,AIR LOOP HVAC ZONE MIXER 1,Inlet,1
 Non-Parent Node Connection,NODE 387,AIRLOOPHVAC:ZONEMIXER,AIR LOOP HVAC ZONE MIXER 1,Inlet,1
 Non-Parent Node Connection,NODE 391,AIRLOOPHVAC:ZONEMIXER,AIR LOOP HVAC ZONE MIXER 1,Inlet,1
 Non-Parent Node Connection,NODE 395,AIRLOOPHVAC:ZONEMIXER,AIR LOOP HVAC ZONE MIXER 1,Inlet,1
 Non-Parent Node Connection,NODE 399,AIRLOOPHVAC:ZONEMIXER,AIR LOOP HVAC ZONE MIXER 1,Inlet,1
 Non-Parent Node Connection,NODE 403,AIRLOOPHVAC:ZONEMIXER,AIR LOOP HVAC ZONE MIXER 1,Inlet,1
 Non-Parent Node Connection,NODE 407,AIRLOOPHVAC:ZONEMIXER,AIR LOOP HVAC ZONE MIXER 1,Inlet,1
 Non-Parent Node Connection,NODE 411,AIRLOOPHVAC:ZONEMIXER,AIR LOOP HVAC ZONE MIXER 1,Inlet,1
 Non-Parent Node Connection,NODE 415,AIRLOOPHVAC:ZONEMIXER,AIR LOOP HVAC ZONE MIXER 1,Inlet,1
 Non-Parent Node Connection,NODE 419,AIRLOOPHVAC:ZONEMIXER,AIR LOOP HVAC ZONE MIXER 2,Outlet,1
 Non-Parent Node Connection,NODE 426,AIRLOOPHVAC:ZONEMIXER,AIR LOOP HVAC ZONE MIXER 2,Inlet,1
 Non-Parent Node Connection,NODE 428,AIRLOOPHVAC:ZONEMIXER,AIR LOOP HVAC ZONE MIXER 2,Inlet,1
 Non-Parent Node Connection,NODE 430,AIRLOOPHVAC:ZONEMIXER,AIR LOOP HVAC ZONE MIXER 2,Inlet,1
 Non-Parent Node Connection,NODE 432,AIRLOOPHVAC:ZONEMIXER,AIR LOOP HVAC ZONE MIXER 2,Inlet,1
 Non-Parent Node Connection,NODE 434,AIRLOOPHVAC:ZONEMIXER,AIR LOOP HVAC ZONE MIXER 2,Inlet,1
 Non-Parent Node Connection,NODE 436,AIRLOOPHVAC:ZONEMIXER,AIR LOOP HVAC ZONE MIXER 2,Inlet,1
 Non-Parent Node Connection,NODE 438,AIRLOOPHVAC:ZONEMIXER,AIR LOOP HVAC ZONE MIXER 2,Inlet,1
 Non-Parent Node Connection,NODE 440,AIRLOOPHVAC:ZONEMIXER,AIR LOOP HVAC ZONE MIXER 2,Inlet,1
 Non-Parent Node Connection,NODE 442,AIRLOOPHVAC:ZONEMIXER,AIR LOOP HVAC ZONE MIXER 2,Inlet,1
 Non-Parent Node Connection,NODE 444,AIRLOOPHVAC:ZONEMIXER,AIR LOOP HVAC ZONE MIXER 2,Inlet,1
 Non-Parent Node Connection,NODE 475,AIRLOOPHVAC:ZONEMIXER,AIR LOOP HVAC ZONE MIXER 3,Outlet,1
 Non-Parent Node Connection,NODE 484,AIRLOOPHVAC:ZONEMIXER,AIR LOOP HVAC ZONE MIXER 3,Inlet,1
 Non-Parent Node Connection,NODE 450,COIL:COOLING:WATER,COIL COOLING WATER 1,Inlet,2
 Non-Parent Node Connection,NODE 477,COIL:COOLING:WATER,COIL COOLING WATER 1,Outlet,2
 Non-Parent Node Connection,NODE 482,COIL:COOLING:WATER,COIL COOLING WATER 1,Inlet,1
 Non-Parent Node Connection,NODE 481,COIL:COOLING:WATER,COIL COOLING WATER 1,Outlet,1
 Non-Parent Node Connection,NODE 481,CONTROLLER:WATERCOIL,CONTROLLER WATER COIL 1,Sensor,1
 Non-Parent Node Connection,NODE 450,CONTROLLER:WATERCOIL,CONTROLLER WATER COIL 1,Actuator,1
 Non-Parent Node Connection,NODE 15,CONTROLLER:OUTDOORAIR,CONTROLLER OUTDOOR AIR 1,Sensor,1
 Non-Parent Node Connection,NODE 9,CONTROLLER:OUTDOORAIR,CONTROLLER OUTDOOR AIR 1,Actuator,1
 Non-Parent Node Connection,NODE 662,CONTROLLER:OUTDOORAIR,CONTROLLER OUTDOOR AIR 1,Actuator,1
 Non-Parent Node Connection,NODE 2,CONTROLLER:OUTDOORAIR,CONTROLLER OUTDOOR AIR 1,Sensor,1
 Non-Parent Node Connection,NODE 425,CONTROLLER:OUTDOORAIR,CONTROLLER OUTDOOR AIR 2,Sensor,1
 Non-Parent Node Connection,NODE 421,CONTROLLER:OUTDOORAIR,CONTROLLER OUTDOOR AIR 2,Actuator,1
 Non-Parent Node Connection,NODE 422,CONTROLLER:OUTDOORAIR,CONTROLLER OUTDOOR AIR 2,Actuator,1
 Non-Parent Node Connection,NODE 416,CONTROLLER:OUTDOORAIR,CONTROLLER OUTDOOR AIR 2,Sensor,1
 Non-Parent Node Connection,NODE 482,CONTROLLER:OUTDOORAIR,CONTROLLER OUTDOOR AIR 3,Sensor,1
 Non-Parent Node Connection,NODE 478,CONTROLLER:OUTDOORAIR,CONTROLLER OUTDOOR AIR 3,Actuator,1
 Non-Parent Node Connection,NODE 479,CONTROLLER:OUTDOORAIR,CONTROLLER OUTDOOR AIR 3,Actuator,1
 Non-Parent Node Connection,NODE 483,CONTROLLER:OUTDOORAIR,CONTROLLER OUTDOOR AIR 3,Sensor,1
 Non-Parent Node Connection,NODE 9,HEATEXCHANGER:AIRTOAIR:SENSIBLEANDLATENT,SYS_1_MAKE-UP AIR UNIT ERV,Inlet,1
 Non-Parent Node Connection,NODE 661,HEATEXCHANGER:AIRTOAIR:SENSIBLEANDLATENT,SYS_1_MAKE-UP AIR UNIT ERV,Outlet,1
 Non-Parent Node Connection,NODE 662,HEATEXCHANGER:AIRTOAIR:SENSIBLEANDLATENT,SYS_1_MAKE-UP AIR UNIT ERV,Inlet,2
 Non-Parent Node Connection,NODE 11,HEATEXCHANGER:AIRTOAIR:SENSIBLEANDLATENT,SYS_1_MAKE-UP AIR UNIT ERV,Outlet,2
 Non-Parent Node Connection,NODE 447,CHILLER:ELECTRIC:EIR,PRIMARY CHILLER WATERCOOLED SCROLL 2TONS 0.8KW/TON,Inlet,1
 Non-Parent Node Connection,NODE 452,CHILLER:ELECTRIC:EIR,PRIMARY CHILLER WATERCOOLED SCROLL 2TONS 0.8KW/TON,Outlet,1
 Non-Parent Node Connection,NODE 463,CHILLER:ELECTRIC:EIR,PRIMARY CHILLER WATERCOOLED SCROLL 2TONS 0.8KW/TON,Inlet,2
 Non-Parent Node Connection,NODE 469,CHILLER:ELECTRIC:EIR,PRIMARY CHILLER WATERCOOLED SCROLL 2TONS 0.8KW/TON,Outlet,2
 Non-Parent Node Connection,NODE 453,CHILLER:ELECTRIC:EIR,SECONDARY CHILLER WATERCOOLED SCROLL 0TONS 0.8KW/TON,Inlet,1
 Non-Parent Node Connection,NODE 454,CHILLER:ELECTRIC:EIR,SECONDARY CHILLER WATERCOOLED SCROLL 0TONS 0.8KW/TON,Outlet,1
 Non-Parent Node Connection,NODE 470,CHILLER:ELECTRIC:EIR,SECONDARY CHILLER WATERCOOLED SCROLL 0TONS 0.8KW/TON,Inlet,2
 Non-Parent Node Connection,NODE 471,CHILLER:ELECTRIC:EIR,SECONDARY CHILLER WATERCOOLED SCROLL 0TONS 0.8KW/TON,Outlet,2
 Non-Parent Node Connection,NODE 460,COOLINGTOWER:SINGLESPEED,COOLING TOWER SINGLE SPEED 1,Inlet,1
 Non-Parent Node Connection,NODE 465,COOLINGTOWER:SINGLESPEED,COOLING TOWER SINGLE SPEED 1,Outlet,1
 Non-Parent Node Connection,NODE 445,PUMP:CONSTANTSPEED,PUMP CONSTANT SPEED 1,Inlet,1
 Non-Parent Node Connection,NODE 451,PUMP:CONSTANTSPEED,PUMP CONSTANT SPEED 1,Outlet,1
 Non-Parent Node Connection,NODE 458,PUMP:CONSTANTSPEED,PUMP CONSTANT SPEED 2,Inlet,1
 Non-Parent Node Connection,NODE 464,PUMP:CONSTANTSPEED,PUMP CONSTANT SPEED 2,Outlet,1
 Non-Parent Node Connection,NODE 486,PUMP:CONSTANTSPEED,SERVICE WATER LOOP PUMP,Inlet,1
 Non-Parent Node Connection,NODE 492,PUMP:CONSTANTSPEED,SERVICE WATER LOOP PUMP,Outlet,1
