Program Version,EnergyPlus, Version 8.9.0-eba93e8e1b, YMD=2019.08.13 15:55
! <Version>, Version ID
 Version, 8.9
! <Timesteps per Hour>, #TimeSteps, Minutes per TimeStep {minutes}
 Timesteps per Hour,  1, 60
! <System Convergence Limits>, Minimum System TimeStep {minutes}, Max HVAC Iterations, Minimum Plant Iterations, Maximum Plant Iterations
 System Convergence Limits, 5, 25, 2, 8
! <Simulation Control>, Do Zone Sizing, Do System Sizing, Do Plant Sizing, Do Design Days, Do Weather Simulation, Do HVAC Sizing Simulation
 Simulation Control, Yes, Yes, Yes, No, Yes, No
! <Output Reporting Tolerances>, Tolerance for Time Heating Setpoint Not Met, Tolerance for Zone Cooling Setpoint Not Met Time
 Output Reporting Tolerances, 1.000, 1.000, 
! <Site:GroundTemperature:BuildingSurface>,Jan{C},Feb{C},Mar{C},Apr{C},May{C},Jun{C},Jul{C},Aug{C},Sep{C},Oct{C},Nov{C},Dec{C}
 Site:GroundTemperature:BuildingSurface,  19.53,  19.50,  19.54,  19.60,  20.00,  21.64,  22.23,  22.38,  21.45,  20.12,  19.80,  19.63
! <Site:GroundTemperature:FCfactorMethod>,Jan{C},Feb{C},Mar{C},Apr{C},May{C},Jun{C},Jul{C},Aug{C},Sep{C},Oct{C},Nov{C},Dec{C}
 Site:GroundTemperature:FCfactorMethod,   4.91,   4.40,   5.30,   6.72,  10.43,  13.29,  15.22,  15.81,  14.81,  12.58,   9.61,   6.86
! <Site:GroundTemperature:Shallow>,Jan{C},Feb{C},Mar{C},Apr{C},May{C},Jun{C},Jul{C},Aug{C},Sep{C},Oct{C},Nov{C},Dec{C}
 Site:GroundTemperature:Shallow,  13.00,  13.00,  13.00,  13.00,  13.00,  13.00,  13.00,  13.00,  13.00,  13.00,  13.00,  13.00
! <Site:GroundTemperature:Deep>,Jan{C},Feb{C},Mar{C},Apr{C},May{C},Jun{C},Jul{C},Aug{C},Sep{C},Oct{C},Nov{C},Dec{C}
 Site:GroundTemperature:Deep,  16.00,  16.00,  16.00,  16.00,  16.00,  16.00,  16.00,  16.00,  16.00,  16.00,  16.00,  16.00
! <Site:GroundReflectance>,Jan{dimensionless},Feb{dimensionless},Mar{dimensionless},Apr{dimensionless},May{dimensionless},Jun{dimensionless},Jul{dimensionless},Aug{dimensionless},Sep{dimensionless},Oct{dimensionless},Nov{dimensionless},Dec{dimensionless}
 Site:GroundReflectance,  0.20,  0.20,  0.20,  0.20,  0.20,  0.20,  0.20,  0.20,  0.20,  0.20,  0.20,  0.20
! <Site:GroundReflectance:SnowModifier>, Normal, Daylighting {dimensionless}
 Site:GroundReflectance:SnowModifier,   1.000,   1.000
! <Site:GroundReflectance:Snow>,Jan{dimensionless},Feb{dimensionless},Mar{dimensionless},Apr{dimensionless},May{dimensionless},Jun{dimensionless},Jul{dimensionless},Aug{dimensionless},Sep{dimensionless},Oct{dimensionless},Nov{dimensionless},Dec{dimensionless}
 Site:GroundReflectance:Snow,  0.20,  0.20,  0.20,  0.20,  0.20,  0.20,  0.20,  0.20,  0.20,  0.20,  0.20,  0.20
! <Site:GroundReflectance:Snow:Daylighting>,Jan{dimensionless},Feb{dimensionless},Mar{dimensionless},Apr{dimensionless},May{dimensionless},Jun{dimensionless},Jul{dimensionless},Aug{dimensionless},Sep{dimensionless},Oct{dimensionless},Nov{dimensionless},Dec{dimensionless}
 Site:GroundReflectance:Snow:Daylighting,  0.20,  0.20,  0.20,  0.20,  0.20,  0.20,  0.20,  0.20,  0.20,  0.20,  0.20,  0.20
! <Environment:Weather Station>,Wind Sensor Height Above Ground {m},Wind Speed Profile Exponent {},Wind Speed Profile Boundary Layer Thickness {m},Air Temperature Sensor Height Above Ground {m},Wind Speed Modifier Coefficient-Internal,Temperature Modifier Coefficient-Internal
Environment:Weather Station,10.000,0.140,270.000,1.500,1.586,9.750E-003
! <Site:Location>, Location Name, Latitude {N+/S- Deg}, Longitude {E+/W- Deg},  Time Zone Number {GMT+/-}, Elevation {m},  Standard Pressure at Elevation {Pa}, Standard RhoAir at Elevation
Site:Location,Victoria Intl AP BC CAN CWEC2016 WMO#=717990,48.65,-123.43,-8.00,19.50,101091,1.2015
! <Building Information>, Building Name,North Axis {deg},Terrain,  Loads Convergence Tolerance Value,Temperature Convergence Tolerance Value,  Solar Distribution,Maximum Number of Warmup Days,Minimum Number of Warmup Days
 Building Information,HighriseApartment-CAN_BC_Victoria.Intl.AP.717990_CWEC2016.epw created: 2019-08-07 21:44:23 +0000,0.000,City,4.00000E-002,0.20000,FullInteriorAndExterior,25,6
! <Inside Convection Algorithm>, Algorithm {Simple | TARP | CeilingDiffuser | AdaptiveConvectionAlgorithm}
Inside Convection Algorithm,TARP
! <Outside Convection Algorithm>, Algorithm {SimpleCombined | TARP | MoWitt | DOE-2 | AdaptiveConvectionAlgorithm}
Outside Convection Algorithm,TARP
! <Sky Radiance Distribution>, Value {Anisotropic}
Sky Radiance Distribution,Anisotropic
! <Zone Air Solution Algorithm>, Value {ThirdOrderBackwardDifference | AnalyticalSolution | EulerMethod}
 Zone Air Solution Algorithm, ThirdOrderBackwardDifference
! <Zone Air Carbon Dioxide Balance Simulation>, Simulation {Yes/No}, Carbon Dioxide Concentration
 Zone Air Carbon Dioxide Balance Simulation, No,N/A
! <Zone Air Generic Contaminant Balance Simulation>, Simulation {Yes/No}, Generic Contaminant Concentration
 Zone Air Generic Contaminant Balance Simulation, No,N/A
! <Zone Air Mass Flow Balance Simulation>, Enforce Mass Balance, Adjust Zone Mixing, Adjust Zone Infiltration {AddInfiltration | AdjustInfiltration | None}, Infiltration Zones {MixingSourceZonesOnly | AllZones}
 Zone Air Mass Flow Balance Simulation, No,N/A,N/A,N/A
! <HVACSystemRootFindingAlgorithm>, Value {RegulaFalsi | Bisection | BisectionThenRegulaFalsi | RegulaFalsiThenBisection}
 HVACSystemRootFindingAlgorithm, RegulaFalsi
! <Environment:Site Atmospheric Variation>,Wind Speed Profile Exponent {},Wind Speed Profile Boundary Layer Thickness {m},Air Temperature Gradient Coefficient {K/m}
Environment:Site Atmospheric Variation,0.330,460.000,6.500000E-003
! <Surface Geometry>,Starting Corner,Vertex Input Direction,Coordinate System,Daylight Reference Point Coordinate System,Rectangular (Simple) Surface Coordinate System
 Surface Geometry,UpperLeftCorner,Counterclockwise,RelativeCoordinateSystem,RelativeCoordinateSystem,RelativeToZoneOrigin
! <Surface Heat Transfer Algorithm>, Value {CTF - ConductionTransferFunction | EMPD - MoisturePenetrationDepthConductionTransferFunction | CondFD - ConductionFiniteDifference | HAMT - CombinedHeatAndMoistureFiniteElement} - Description,Inside Surface Max Temperature Limit{C}, Surface Convection Coefficient Lower Limit {W/m2-K}, Surface Convection Coefficient Upper Limit {W/m2-K}
Surface Heat Transfer Algorithm, CTF - ConductionTransferFunction,200,0.10,1000.0
! <Shading Summary>, Number of Fixed Detached Shades, Number of Building Detached Shades, Number of Attached Shades
 Shading Summary,0,0,80
! <Zone Summary>, Number of Zones, Number of Zone Surfaces, Number of SubSurfaces
 Zone Summary,90,740,140
! <Zone Information>,Zone Name,North Axis {deg},Origin X-Coordinate {m},Origin Y-Coordinate {m},Origin Z-Coordinate {m},Centroid X-Coordinate {m},Centroid Y-Coordinate {m},Centroid Z-Coordinate {m},Type,Zone Multiplier,Zone List Multiplier,Minimum X {m},Maximum X {m},Minimum Y {m},Maximum Y {m},Minimum Z {m},Maximum Z {m},Ceiling Height {m},Volume {m3},Zone Inside Convection Algorithm {Simple-Detailed-CeilingDiffuser-TrombeWall},Zone Outside Convection Algorithm {Simple-Detailed-Tarp-MoWitt-DOE-2-BLAST}, Floor Area {m2},Exterior Gross Wall Area {m2},Exterior Net Wall Area {m2},Exterior Window Area {m2}, Number of Surfaces, Number of SubSurfaces, Number of Shading SubSurfaces,  Part of Total Building Area
 Zone Information, ALL_ST=OFFICE ENCLOSED <= 25 M2_FL=BUILDING STORY 1_SCH=A,0.0,34.75,0.00,0.00,40.54,3.81,1.52,1,1,1,34.75,46.33,0.00,7.62,0.00,3.05,3.05,268.96,TARP,TARP,88.25,58.52,45.06,13.46,6,2,2,Yes
 Zone Information, DU_BT=SPACE FUNCTION_ST=DWELLING UNITS GENERAL_FL=BUILDING STORY 10_SCHG,0.0,11.58,0.00,27.43,17.37,3.81,28.95,1,1,1,11.58,23.16,0.00,7.62,27.43,30.48,3.05,268.96,TARP,TARP,88.25,35.30,27.18,8.12,6,1,2,Yes
 Zone Information, DU_BT=SPACE FUNCTION_ST=DWELLING UNITS GENERAL_FL=BUILDING STORY 10_SCHG 1,0.0,34.75,9.30,27.43,40.54,13.11,28.95,1,1,1,34.75,46.33,9.30,16.92,27.43,30.48,3.05,268.96,TARP,TARP,88.25,58.52,45.06,13.46,6,2,0,Yes
 Zone Information, DU_BT=SPACE FUNCTION_ST=DWELLING UNITS GENERAL_FL=BUILDING STORY 10_SCHG 2,0.0,23.16,9.30,27.43,28.95,13.11,28.95,1,1,1,23.16,34.75,9.30,16.92,27.43,30.48,3.05,268.97,TARP,TARP,88.25,35.30,27.18,8.12,6,1,0,Yes
 Zone Information, DU_BT=SPACE FUNCTION_ST=DWELLING UNITS GENERAL_FL=BUILDING STORY 10_SCHG 3,0.0,23.16,0.00,27.43,28.95,3.81,28.95,1,1,1,23.16,34.75,0.00,7.62,27.43,30.48,3.05,268.97,TARP,TARP,88.25,35.30,27.18,8.12,6,1,2,Yes
 Zone Information, DU_BT=SPACE FUNCTION_ST=DWELLING UNITS GENERAL_FL=BUILDING STORY 10_SCHG 4,0.0,0.00,9.30,27.43,5.79,13.11,28.95,1,1,1,0.00,11.58,9.30,16.92,27.43,30.48,3.05,268.96,TARP,TARP,88.25,58.52,45.06,13.46,6,2,0,Yes
 Zone Information, DU_BT=SPACE FUNCTION_ST=DWELLING UNITS GENERAL_FL=BUILDING STORY 10_SCHG 5,0.0,0.00,0.00,27.43,5.79,3.81,28.95,1,1,1,0.00,11.58,0.00,7.62,27.43,30.48,3.05,268.96,TARP,TARP,88.25,58.52,45.06,13.46,6,2,2,Yes
 Zone Information, DU_BT=SPACE FUNCTION_ST=DWELLING UNITS GENERAL_FL=BUILDING STORY 10_SCHG 6,0.0,11.58,9.30,27.43,17.37,13.11,28.95,1,1,1,11.58,23.16,9.30,16.92,27.43,30.48,3.05,268.96,TARP,TARP,88.25,35.30,27.18,8.12,6,1,0,Yes
 Zone Information, DU_BT=SPACE FUNCTION_ST=DWELLING UNITS GENERAL_FL=BUILDING STORY 10_SCHG 7,0.0,34.75,0.00,27.43,40.54,3.81,28.95,1,1,1,34.75,46.33,0.00,7.62,27.43,30.48,3.05,268.96,TARP,TARP,88.25,58.52,45.06,13.46,6,2,2,Yes
 Zone Information, DU_BT=SPACE FUNCTION_ST=DWELLING UNITS GENERAL_FL=BUILDING STORY 1_SCHG,0.0,34.75,9.30,0.00,40.54,13.11,1.52,1,1,1,34.75,46.33,9.30,16.92,0.00,3.05,3.05,268.96,TARP,TARP,88.25,58.52,45.06,13.46,6,2,0,Yes
 Zone Information, DU_BT=SPACE FUNCTION_ST=DWELLING UNITS GENERAL_FL=BUILDING STORY 1_SCHG 1,0.0,0.00,0.00,0.00,5.79,3.81,1.52,1,1,1,0.00,11.58,0.00,7.62,0.00,3.05,3.05,268.96,TARP,TARP,88.25,58.52,45.06,13.46,6,2,2,Yes
 Zone Information, DU_BT=SPACE FUNCTION_ST=DWELLING UNITS GENERAL_FL=BUILDING STORY 1_SCHG 2,0.0,11.58,9.30,0.00,17.37,13.11,1.52,1,1,1,11.58,23.16,9.30,16.92,0.00,3.05,3.05,268.96,TARP,TARP,88.25,35.30,27.18,8.12,6,1,0,Yes
 Zone Information, DU_BT=SPACE FUNCTION_ST=DWELLING UNITS GENERAL_FL=BUILDING STORY 1_SCHG 3,0.0,11.58,0.00,0.00,17.37,3.81,1.52,1,1,1,11.58,23.16,0.00,7.62,0.00,3.05,3.05,268.96,TARP,TARP,88.25,35.30,27.18,8.12,6,1,2,Yes
 Zone Information, DU_BT=SPACE FUNCTION_ST=DWELLING UNITS GENERAL_FL=BUILDING STORY 1_SCHG 4,0.0,0.00,9.30,0.00,5.79,13.11,1.52,1,1,1,0.00,11.58,9.30,16.92,0.00,3.05,3.05,268.96,TARP,TARP,88.25,58.52,45.06,13.46,6,2,0,Yes
 Zone Information, DU_BT=SPACE FUNCTION_ST=DWELLING UNITS GENERAL_FL=BUILDING STORY 1_SCHG 5,0.0,23.16,9.30,0.00,28.95,13.11,1.52,1,1,1,23.16,34.75,9.30,16.92,0.00,3.05,3.05,268.97,TARP,TARP,88.25,35.30,27.18,8.12,6,1,0,Yes
 Zone Information, DU_BT=SPACE FUNCTION_ST=DWELLING UNITS GENERAL_FL=BUILDING STORY 1_SCHG 6,0.0,23.16,0.00,0.00,28.95,3.81,1.52,1,1,1,23.16,34.75,0.00,7.62,0.00,3.05,3.05,268.97,TARP,TARP,88.25,35.30,27.18,8.12,6,1,2,Yes
 Zone Information, DU_BT=SPACE FUNCTION_ST=DWELLING UNITS GENERAL_FL=BUILDING STORY 2_SCHG,0.0,23.16,9.30,3.05,28.95,13.11,4.57,1,1,1,23.16,34.75,9.30,16.92,3.05,6.10,3.05,268.97,TARP,TARP,88.25,35.30,27.18,8.12,6,1,0,Yes
 Zone Information, DU_BT=SPACE FUNCTION_ST=DWELLING UNITS GENERAL_FL=BUILDING STORY 2_SCHG 1,0.0,23.16,0.00,3.05,28.95,3.81,4.57,1,1,1,23.16,34.75,0.00,7.62,3.05,6.10,3.05,268.97,TARP,TARP,88.25,35.30,27.18,8.12,6,1,2,Yes
 Zone Information, DU_BT=SPACE FUNCTION_ST=DWELLING UNITS GENERAL_FL=BUILDING STORY 2_SCHG 2,0.0,0.00,9.30,3.05,5.79,13.11,4.57,1,1,1,0.00,11.58,9.30,16.92,3.05,6.10,3.05,268.96,TARP,TARP,88.25,58.52,45.06,13.46,6,2,0,Yes
 Zone Information, DU_BT=SPACE FUNCTION_ST=DWELLING UNITS GENERAL_FL=BUILDING STORY 2_SCHG 3,0.0,11.58,0.00,3.05,17.37,3.81,4.57,1,1,1,11.58,23.16,0.00,7.62,3.05,6.10,3.05,268.96,TARP,TARP,88.25,35.30,27.18,8.12,6,1,2,Yes
 Zone Information, DU_BT=SPACE FUNCTION_ST=DWELLING UNITS GENERAL_FL=BUILDING STORY 2_SCHG 4,0.0,34.75,9.30,3.05,40.54,13.11,4.57,1,1,1,34.75,46.33,9.30,16.92,3.05,6.10,3.05,268.96,TARP,TARP,88.25,58.52,45.06,13.46,6,2,0,Yes
 Zone Information, DU_BT=SPACE FUNCTION_ST=DWELLING UNITS GENERAL_FL=BUILDING STORY 2_SCHG 5,0.0,11.58,9.30,3.05,17.37,13.11,4.57,1,1,1,11.58,23.16,9.30,16.92,3.05,6.10,3.05,268.96,TARP,TARP,88.25,35.30,27.18,8.12,6,1,0,Yes
 Zone Information, DU_BT=SPACE FUNCTION_ST=DWELLING UNITS GENERAL_FL=BUILDING STORY 2_SCHG 6,0.0,0.00,0.00,3.05,5.79,3.81,4.57,1,1,1,0.00,11.58,0.00,7.62,3.05,6.10,3.05,268.96,TARP,TARP,88.25,58.52,45.06,13.46,6,2,2,Yes
 Zone Information, DU_BT=SPACE FUNCTION_ST=DWELLING UNITS GENERAL_FL=BUILDING STORY 2_SCHG 7,0.0,34.75,0.00,3.05,40.54,3.81,4.57,1,1,1,34.75,46.33,0.00,7.62,3.05,6.10,3.05,268.96,TARP,TARP,88.25,58.52,45.06,13.46,6,2,2,Yes
 Zone Information, DU_BT=SPACE FUNCTION_ST=DWELLING UNITS GENERAL_FL=BUILDING STORY 3_SCHG,0.0,0.00,0.00,6.10,5.79,3.81,7.62,1,1,1,0.00,11.58,0.00,7.62,6.10,9.14,3.05,268.96,TARP,TARP,88.25,58.52,45.06,13.46,6,2,2,Yes
 Zone Information, DU_BT=SPACE FUNCTION_ST=DWELLING UNITS GENERAL_FL=BUILDING STORY 3_SCHG 1,0.0,23.16,0.00,6.10,28.95,3.81,7.62,1,1,1,23.16,34.75,0.00,7.62,6.10,9.14,3.05,268.97,TARP,TARP,88.25,35.30,27.18,8.12,6,1,2,Yes
 Zone Information, DU_BT=SPACE FUNCTION_ST=DWELLING UNITS GENERAL_FL=BUILDING STORY 3_SCHG 2,0.0,11.58,0.00,6.10,17.37,3.81,7.62,1,1,1,11.58,23.16,0.00,7.62,6.10,9.14,3.05,268.96,TARP,TARP,88.25,35.30,27.18,8.12,6,1,2,Yes
 Zone Information, DU_BT=SPACE FUNCTION_ST=DWELLING UNITS GENERAL_FL=BUILDING STORY 3_SCHG 3,0.0,34.75,0.00,6.10,40.54,3.81,7.62,1,1,1,34.75,46.33,0.00,7.62,6.10,9.14,3.05,268.96,TARP,TARP,88.25,58.52,45.06,13.46,6,2,2,Yes
 Zone Information, DU_BT=SPACE FUNCTION_ST=DWELLING UNITS GENERAL_FL=BUILDING STORY 3_SCHG 4,0.0,0.00,9.30,6.10,5.79,13.11,7.62,1,1,1,0.00,11.58,9.30,16.92,6.10,9.14,3.05,268.96,TARP,TARP,88.25,58.52,45.06,13.46,6,2,0,Yes
 Zone Information, DU_BT=SPACE FUNCTION_ST=DWELLING UNITS GENERAL_FL=BUILDING STORY 3_SCHG 5,0.0,34.75,9.30,6.10,40.54,13.11,7.62,1,1,1,34.75,46.33,9.30,16.92,6.10,9.14,3.05,268.96,TARP,TARP,88.25,58.52,45.06,13.46,6,2,0,Yes
 Zone Information, DU_BT=SPACE FUNCTION_ST=DWELLING UNITS GENERAL_FL=BUILDING STORY 3_SCHG 6,0.0,11.58,9.30,6.10,17.37,13.11,7.62,1,1,1,11.58,23.16,9.30,16.92,6.10,9.14,3.05,268.96,TARP,TARP,88.25,35.30,27.18,8.12,6,1,0,Yes
 Zone Information, DU_BT=SPACE FUNCTION_ST=DWELLING UNITS GENERAL_FL=BUILDING STORY 3_SCHG 7,0.0,23.16,9.30,6.10,28.95,13.11,7.62,1,1,1,23.16,34.75,9.30,16.92,6.10,9.14,3.05,268.97,TARP,TARP,88.25,35.30,27.18,8.12,6,1,0,Yes
 Zone Information, DU_BT=SPACE FUNCTION_ST=DWELLING UNITS GENERAL_FL=BUILDING STORY 4_SCHG,0.0,34.75,0.00,9.14,40.54,3.81,10.67,1,1,1,34.75,46.33,0.00,7.62,9.14,12.19,3.05,268.96,TARP,TARP,88.25,58.52,45.06,13.46,6,2,2,Yes
 Zone Information, DU_BT=SPACE FUNCTION_ST=DWELLING UNITS GENERAL_FL=BUILDING STORY 4_SCHG 1,0.0,34.75,9.30,9.14,40.54,13.11,10.67,1,1,1,34.75,46.33,9.30,16.92,9.14,12.19,3.05,268.96,TARP,TARP,88.25,58.52,45.06,13.46,6,2,0,Yes
 Zone Information, DU_BT=SPACE FUNCTION_ST=DWELLING UNITS GENERAL_FL=BUILDING STORY 4_SCHG 2,0.0,0.00,0.00,9.14,5.79,3.81,10.67,1,1,1,0.00,11.58,0.00,7.62,9.14,12.19,3.05,268.96,TARP,TARP,88.25,58.52,45.06,13.46,6,2,2,Yes
 Zone Information, DU_BT=SPACE FUNCTION_ST=DWELLING UNITS GENERAL_FL=BUILDING STORY 4_SCHG 3,0.0,23.16,0.00,9.14,28.95,3.81,10.67,1,1,1,23.16,34.75,0.00,7.62,9.14,12.19,3.05,268.97,TARP,TARP,88.25,35.30,27.18,8.12,6,1,2,Yes
 Zone Information, DU_BT=SPACE FUNCTION_ST=DWELLING UNITS GENERAL_FL=BUILDING STORY 4_SCHG 4,0.0,0.00,9.30,9.14,5.79,13.11,10.67,1,1,1,0.00,11.58,9.30,16.92,9.14,12.19,3.05,268.96,TARP,TARP,88.25,58.52,45.06,13.46,6,2,0,Yes
 Zone Information, DU_BT=SPACE FUNCTION_ST=DWELLING UNITS GENERAL_FL=BUILDING STORY 4_SCHG 5,0.0,11.58,9.30,9.14,17.37,13.11,10.67,1,1,1,11.58,23.16,9.30,16.92,9.14,12.19,3.05,268.96,TARP,TARP,88.25,35.30,27.18,8.12,6,1,0,Yes
 Zone Information, DU_BT=SPACE FUNCTION_ST=DWELLING UNITS GENERAL_FL=BUILDING STORY 4_SCHG 6,0.0,11.58,0.00,9.14,17.37,3.81,10.67,1,1,1,11.58,23.16,0.00,7.62,9.14,12.19,3.05,268.96,TARP,TARP,88.25,35.30,27.18,8.12,6,1,2,Yes
 Zone Information, DU_BT=SPACE FUNCTION_ST=DWELLING UNITS GENERAL_FL=BUILDING STORY 4_SCHG 7,0.0,23.16,9.30,9.14,28.95,13.11,10.67,1,1,1,23.16,34.75,9.30,16.92,9.14,12.19,3.05,268.97,TARP,TARP,88.25,35.30,27.18,8.12,6,1,0,Yes
 Zone Information, DU_BT=SPACE FUNCTION_ST=DWELLING UNITS GENERAL_FL=BUILDING STORY 5_SCHG,0.0,34.75,0.00,12.19,40.54,3.81,13.72,1,1,1,34.75,46.33,0.00,7.62,12.19,15.24,3.05,268.96,TARP,TARP,88.25,58.52,45.06,13.46,6,2,2,Yes
 Zone Information, DU_BT=SPACE FUNCTION_ST=DWELLING UNITS GENERAL_FL=BUILDING STORY 5_SCHG 1,0.0,11.58,9.30,12.19,17.37,13.11,13.72,1,1,1,11.58,23.16,9.30,16.92,12.19,15.24,3.05,268.96,TARP,TARP,88.25,35.30,27.18,8.12,6,1,0,Yes
 Zone Information, DU_BT=SPACE FUNCTION_ST=DWELLING UNITS GENERAL_FL=BUILDING STORY 5_SCHG 2,0.0,34.75,9.30,12.19,40.54,13.11,13.72,1,1,1,34.75,46.33,9.30,16.92,12.19,15.24,3.05,268.96,TARP,TARP,88.25,58.52,45.06,13.46,6,2,0,Yes
 Zone Information, DU_BT=SPACE FUNCTION_ST=DWELLING UNITS GENERAL_FL=BUILDING STORY 5_SCHG 3,0.0,23.16,9.30,12.19,28.95,13.11,13.72,1,1,1,23.16,34.75,9.30,16.92,12.19,15.24,3.05,268.97,TARP,TARP,88.25,35.30,27.18,8.12,6,1,0,Yes
 Zone Information, DU_BT=SPACE FUNCTION_ST=DWELLING UNITS GENERAL_FL=BUILDING STORY 5_SCHG 4,0.0,23.16,0.00,12.19,28.95,3.81,13.72,1,1,1,23.16,34.75,0.00,7.62,12.19,15.24,3.05,268.97,TARP,TARP,88.25,35.30,27.18,8.12,6,1,2,Yes
 Zone Information, DU_BT=SPACE FUNCTION_ST=DWELLING UNITS GENERAL_FL=BUILDING STORY 5_SCHG 5,0.0,11.58,0.00,12.19,17.37,3.81,13.72,1,1,1,11.58,23.16,0.00,7.62,12.19,15.24,3.05,268.96,TARP,TARP,88.25,35.30,27.18,8.12,6,1,2,Yes
 Zone Information, DU_BT=SPACE FUNCTION_ST=DWELLING UNITS GENERAL_FL=BUILDING STORY 5_SCHG 6,0.0,0.00,9.30,12.19,5.79,13.11,13.72,1,1,1,0.00,11.58,9.30,16.92,12.19,15.24,3.05,268.96,TARP,TARP,88.25,58.52,45.06,13.46,6,2,0,Yes
 Zone Information, DU_BT=SPACE FUNCTION_ST=DWELLING UNITS GENERAL_FL=BUILDING STORY 5_SCHG 7,0.0,0.00,0.00,12.19,5.79,3.81,13.72,1,1,1,0.00,11.58,0.00,7.62,12.19,15.24,3.05,268.96,TARP,TARP,88.25,58.52,45.06,13.46,6,2,2,Yes
 Zone Information, DU_BT=SPACE FUNCTION_ST=DWELLING UNITS GENERAL_FL=BUILDING STORY 6_SCHG,0.0,0.00,9.30,15.24,5.79,13.11,16.76,1,1,1,0.00,11.58,9.30,16.92,15.24,18.29,3.05,268.96,TARP,TARP,88.25,58.52,45.06,13.46,6,2,0,Yes
 Zone Information, DU_BT=SPACE FUNCTION_ST=DWELLING UNITS GENERAL_FL=BUILDING STORY 6_SCHG 1,0.0,23.16,9.30,15.24,28.95,13.11,16.76,1,1,1,23.16,34.75,9.30,16.92,15.24,18.29,3.05,268.97,TARP,TARP,88.25,35.30,27.18,8.12,6,1,0,Yes
 Zone Information, DU_BT=SPACE FUNCTION_ST=DWELLING UNITS GENERAL_FL=BUILDING STORY 6_SCHG 2,0.0,34.75,9.30,15.24,40.54,13.11,16.76,1,1,1,34.75,46.33,9.30,16.92,15.24,18.29,3.05,268.96,TARP,TARP,88.25,58.52,45.06,13.46,6,2,0,Yes
 Zone Information, DU_BT=SPACE FUNCTION_ST=DWELLING UNITS GENERAL_FL=BUILDING STORY 6_SCHG 3,0.0,11.58,9.30,15.24,17.37,13.11,16.76,1,1,1,11.58,23.16,9.30,16.92,15.24,18.29,3.05,268.96,TARP,TARP,88.25,35.30,27.18,8.12,6,1,0,Yes
 Zone Information, DU_BT=SPACE FUNCTION_ST=DWELLING UNITS GENERAL_FL=BUILDING STORY 6_SCHG 4,0.0,34.75,0.00,15.24,40.54,3.81,16.76,1,1,1,34.75,46.33,0.00,7.62,15.24,18.29,3.05,268.96,TARP,TARP,88.25,58.52,45.06,13.46,6,2,2,Yes
 Zone Information, DU_BT=SPACE FUNCTION_ST=DWELLING UNITS GENERAL_FL=BUILDING STORY 6_SCHG 5,0.0,0.00,0.00,15.24,5.79,3.81,16.76,1,1,1,0.00,11.58,0.00,7.62,15.24,18.29,3.05,268.96,TARP,TARP,88.25,58.52,45.06,13.46,6,2,2,Yes
 Zone Information, DU_BT=SPACE FUNCTION_ST=DWELLING UNITS GENERAL_FL=BUILDING STORY 6_SCHG 6,0.0,11.58,0.00,15.24,17.37,3.81,16.76,1,1,1,11.58,23.16,0.00,7.62,15.24,18.29,3.05,268.96,TARP,TARP,88.25,35.30,27.18,8.12,6,1,2,Yes
 Zone Information, DU_BT=SPACE FUNCTION_ST=DWELLING UNITS GENERAL_FL=BUILDING STORY 6_SCHG 7,0.0,23.16,0.00,15.24,28.95,3.81,16.76,1,1,1,23.16,34.75,0.00,7.62,15.24,18.29,3.05,268.97,TARP,TARP,88.25,35.30,27.18,8.12,6,1,2,Yes
 Zone Information, DU_BT=SPACE FUNCTION_ST=DWELLING UNITS GENERAL_FL=BUILDING STORY 7_SCHG,0.0,23.16,9.30,18.29,28.95,13.11,19.81,1,1,1,23.16,34.75,9.30,16.92,18.29,21.33,3.05,268.97,TARP,TARP,88.25,35.30,27.18,8.12,6,1,0,Yes
 Zone Information, DU_BT=SPACE FUNCTION_ST=DWELLING UNITS GENERAL_FL=BUILDING STORY 7_SCHG 1,0.0,0.00,9.30,18.29,5.79,13.11,19.81,1,1,1,0.00,11.58,9.30,16.92,18.29,21.33,3.05,268.96,TARP,TARP,88.25,58.52,45.06,13.46,6,2,0,Yes
 Zone Information, DU_BT=SPACE FUNCTION_ST=DWELLING UNITS GENERAL_FL=BUILDING STORY 7_SCHG 2,0.0,11.58,0.00,18.29,17.37,3.81,19.81,1,1,1,11.58,23.16,0.00,7.62,18.29,21.33,3.05,268.96,TARP,TARP,88.25,35.30,27.18,8.12,6,1,2,Yes
 Zone Information, DU_BT=SPACE FUNCTION_ST=DWELLING UNITS GENERAL_FL=BUILDING STORY 7_SCHG 3,0.0,34.75,9.30,18.29,40.54,13.11,19.81,1,1,1,34.75,46.33,9.30,16.92,18.29,21.33,3.05,268.96,TARP,TARP,88.25,58.52,45.06,13.46,6,2,0,Yes
 Zone Information, DU_BT=SPACE FUNCTION_ST=DWELLING UNITS GENERAL_FL=BUILDING STORY 7_SCHG 4,0.0,0.00,0.00,18.29,5.79,3.81,19.81,1,1,1,0.00,11.58,0.00,7.62,18.29,21.33,3.05,268.96,TARP,TARP,88.25,58.52,45.06,13.46,6,2,2,Yes
 Zone Information, DU_BT=SPACE FUNCTION_ST=DWELLING UNITS GENERAL_FL=BUILDING STORY 7_SCHG 5,0.0,34.75,0.00,18.29,40.54,3.81,19.81,1,1,1,34.75,46.33,0.00,7.62,18.29,21.33,3.05,268.96,TARP,TARP,88.25,58.52,45.06,13.46,6,2,2,Yes
 Zone Information, DU_BT=SPACE FUNCTION_ST=DWELLING UNITS GENERAL_FL=BUILDING STORY 7_SCHG 6,0.0,11.58,9.30,18.29,17.37,13.11,19.81,1,1,1,11.58,23.16,9.30,16.92,18.29,21.33,3.05,268.96,TARP,TARP,88.25,35.30,27.18,8.12,6,1,0,Yes
 Zone Information, DU_BT=SPACE FUNCTION_ST=DWELLING UNITS GENERAL_FL=BUILDING STORY 7_SCHG 7,0.0,23.16,0.00,18.29,28.95,3.81,19.81,1,1,1,23.16,34.75,0.00,7.62,18.29,21.33,3.05,268.97,TARP,TARP,88.25,35.30,27.18,8.12,6,1,2,Yes
 Zone Information, DU_BT=SPACE FUNCTION_ST=DWELLING UNITS GENERAL_FL=BUILDING STORY 8_SCHG,0.0,23.16,0.00,21.33,28.95,3.81,22.86,1,1,1,23.16,34.75,0.00,7.62,21.33,24.38,3.05,268.97,TARP,TARP,88.25,35.30,27.18,8.12,6,1,2,Yes
 Zone Information, DU_BT=SPACE FUNCTION_ST=DWELLING UNITS GENERAL_FL=BUILDING STORY 8_SCHG 1,0.0,0.00,9.30,21.33,5.79,13.11,22.86,1,1,1,0.00,11.58,9.30,16.92,21.33,24.38,3.05,268.96,TARP,TARP,88.25,58.52,45.06,13.46,6,2,0,Yes
 Zone Information, DU_BT=SPACE FUNCTION_ST=DWELLING UNITS GENERAL_FL=BUILDING STORY 8_SCHG 2,0.0,11.58,0.00,21.33,17.37,3.81,22.86,1,1,1,11.58,23.16,0.00,7.62,21.33,24.38,3.05,268.96,TARP,TARP,88.25,35.30,27.18,8.12,6,1,2,Yes
 Zone Information, DU_BT=SPACE FUNCTION_ST=DWELLING UNITS GENERAL_FL=BUILDING STORY 8_SCHG 3,0.0,11.58,9.30,21.33,17.37,13.11,22.86,1,1,1,11.58,23.16,9.30,16.92,21.33,24.38,3.05,268.96,TARP,TARP,88.25,35.30,27.18,8.12,6,1,0,Yes
 Zone Information, DU_BT=SPACE FUNCTION_ST=DWELLING UNITS GENERAL_FL=BUILDING STORY 8_SCHG 4,0.0,34.75,9.30,21.33,40.54,13.11,22.86,1,1,1,34.75,46.33,9.30,16.92,21.33,24.38,3.05,268.96,TARP,TARP,88.25,58.52,45.06,13.46,6,2,0,Yes
 Zone Information, DU_BT=SPACE FUNCTION_ST=DWELLING UNITS GENERAL_FL=BUILDING STORY 8_SCHG 5,0.0,34.75,0.00,21.33,40.54,3.81,22.86,1,1,1,34.75,46.33,0.00,7.62,21.33,24.38,3.05,268.96,TARP,TARP,88.25,58.52,45.06,13.46,6,2,2,Yes
 Zone Information, DU_BT=SPACE FUNCTION_ST=DWELLING UNITS GENERAL_FL=BUILDING STORY 8_SCHG 6,0.0,0.00,0.00,21.33,5.79,3.81,22.86,1,1,1,0.00,11.58,0.00,7.62,21.33,24.38,3.05,268.96,TARP,TARP,88.25,58.52,45.06,13.46,6,2,2,Yes
 Zone Information, DU_BT=SPACE FUNCTION_ST=DWELLING UNITS GENERAL_FL=BUILDING STORY 8_SCHG 7,0.0,23.16,9.30,21.33,28.95,13.11,22.86,1,1,1,23.16,34.75,9.30,16.92,21.33,24.38,3.05,268.97,TARP,TARP,88.25,35.30,27.18,8.12,6,1,0,Yes
 Zone Information, DU_BT=SPACE FUNCTION_ST=DWELLING UNITS GENERAL_FL=BUILDING STORY 9_SCHG,0.0,23.16,9.30,24.38,28.95,13.11,25.91,1,1,1,23.16,34.75,9.30,16.92,24.38,27.43,3.05,268.97,TARP,TARP,88.25,35.30,27.18,8.12,6,1,0,Yes
 Zone Information, DU_BT=SPACE FUNCTION_ST=DWELLING UNITS GENERAL_FL=BUILDING STORY 9_SCHG 1,0.0,34.75,9.30,24.38,40.54,13.11,25.91,1,1,1,34.75,46.33,9.30,16.92,24.38,27.43,3.05,268.96,TARP,TARP,88.25,58.52,45.06,13.46,6,2,0,Yes
 Zone Information, DU_BT=SPACE FUNCTION_ST=DWELLING UNITS GENERAL_FL=BUILDING STORY 9_SCHG 2,0.0,23.16,0.00,24.38,28.95,3.81,25.91,1,1,1,23.16,34.75,0.00,7.62,24.38,27.43,3.05,268.97,TARP,TARP,88.25,35.30,27.18,8.12,6,1,2,Yes
 Zone Information, DU_BT=SPACE FUNCTION_ST=DWELLING UNITS GENERAL_FL=BUILDING STORY 9_SCHG 3,0.0,0.00,0.00,24.38,5.79,3.81,25.91,1,1,1,0.00,11.58,0.00,7.62,24.38,27.43,3.05,268.96,TARP,TARP,88.25,58.52,45.06,13.46,6,2,2,Yes
 Zone Information, DU_BT=SPACE FUNCTION_ST=DWELLING UNITS GENERAL_FL=BUILDING STORY 9_SCHG 4,0.0,0.00,9.30,24.38,5.79,13.11,25.91,1,1,1,0.00,11.58,9.30,16.92,24.38,27.43,3.05,268.96,TARP,TARP,88.25,58.52,45.06,13.46,6,2,0,Yes
 Zone Information, DU_BT=SPACE FUNCTION_ST=DWELLING UNITS GENERAL_FL=BUILDING STORY 9_SCHG 5,0.0,11.58,0.00,24.38,17.37,3.81,25.91,1,1,1,11.58,23.16,0.00,7.62,24.38,27.43,3.05,268.96,TARP,TARP,88.25,35.30,27.18,8.12,6,1,2,Yes
 Zone Information, DU_BT=SPACE FUNCTION_ST=DWELLING UNITS GENERAL_FL=BUILDING STORY 9_SCHG 6,0.0,11.58,9.30,24.38,17.37,13.11,25.91,1,1,1,11.58,23.16,9.30,16.92,24.38,27.43,3.05,268.96,TARP,TARP,88.25,35.30,27.18,8.12,6,1,0,Yes
 Zone Information, DU_BT=SPACE FUNCTION_ST=DWELLING UNITS GENERAL_FL=BUILDING STORY 9_SCHG 7,0.0,34.75,0.00,24.38,40.54,3.81,25.91,1,1,1,34.75,46.33,0.00,7.62,24.38,27.43,3.05,268.96,TARP,TARP,88.25,58.52,45.06,13.46,6,2,2,Yes
 Zone Information, WILD_ST=CORRIDOR/TRANSITION AREA OTHER-SCH-G_FL=BUILDING STORY 10_SCH=G,0.0,0.00,7.62,27.43,23.16,8.46,28.95,1,1,1,0.00,46.33,7.62,9.30,27.43,30.48,3.05,236.69,TARP,TARP,77.66,10.22,7.87,2.35,12,2,0,Yes
 Zone Information, WILD_ST=CORRIDOR/TRANSITION AREA OTHER-SCH-G_FL=BUILDING STORY 1_SCH=G,0.0,0.00,7.62,0.00,23.16,8.46,1.52,1,1,1,0.00,46.33,7.62,9.30,0.00,3.05,3.05,236.69,TARP,TARP,77.66,10.22,7.87,2.35,12,2,0,Yes
 Zone Information, WILD_ST=CORRIDOR/TRANSITION AREA OTHER-SCH-G_FL=BUILDING STORY 2_SCH=G,0.0,0.00,7.62,3.05,23.16,8.46,4.57,1,1,1,0.00,46.33,7.62,9.30,3.05,6.10,3.05,236.69,TARP,TARP,77.66,10.22,7.87,2.35,12,2,0,Yes
 Zone Information, WILD_ST=CORRIDOR/TRANSITION AREA OTHER-SCH-G_FL=BUILDING STORY 3_SCH=G,0.0,0.00,7.62,6.10,23.16,8.46,7.62,1,1,1,0.00,46.33,7.62,9.30,6.10,9.14,3.05,236.69,TARP,TARP,77.66,10.22,7.87,2.35,12,2,0,Yes
 Zone Information, WILD_ST=CORRIDOR/TRANSITION AREA OTHER-SCH-G_FL=BUILDING STORY 4_SCH=G,0.0,0.00,7.62,9.14,23.16,8.46,10.67,1,1,1,0.00,46.33,7.62,9.30,9.14,12.19,3.05,236.69,TARP,TARP,77.66,10.22,7.87,2.35,12,2,0,Yes
 Zone Information, WILD_ST=CORRIDOR/TRANSITION AREA OTHER-SCH-G_FL=BUILDING STORY 5_SCH=G,0.0,0.00,7.62,12.19,23.16,8.46,13.72,1,1,1,0.00,46.33,7.62,9.30,12.19,15.24,3.05,236.69,TARP,TARP,77.66,10.22,7.87,2.35,12,2,0,Yes
 Zone Information, WILD_ST=CORRIDOR/TRANSITION AREA OTHER-SCH-G_FL=BUILDING STORY 6_SCH=G,0.0,0.00,7.62,15.24,23.16,8.46,16.76,1,1,1,0.00,46.33,7.62,9.30,15.24,18.29,3.05,236.69,TARP,TARP,77.66,10.22,7.87,2.35,12,2,0,Yes
 Zone Information, WILD_ST=CORRIDOR/TRANSITION AREA OTHER-SCH-G_FL=BUILDING STORY 7_SCH=G,0.0,0.00,7.62,18.29,23.16,8.46,19.81,1,1,1,0.00,46.33,7.62,9.30,18.29,21.33,3.05,236.69,TARP,TARP,77.66,10.22,7.87,2.35,12,2,0,Yes
 Zone Information, WILD_ST=CORRIDOR/TRANSITION AREA OTHER-SCH-G_FL=BUILDING STORY 8_SCH=G,0.0,0.00,7.62,21.33,23.16,8.46,22.86,1,1,1,0.00,46.33,7.62,9.30,21.33,24.38,3.05,236.69,TARP,TARP,77.66,10.22,7.87,2.35,12,2,0,Yes
 Zone Information, WILD_ST=CORRIDOR/TRANSITION AREA OTHER-SCH-G_FL=BUILDING STORY 9_SCH=G,0.0,0.00,7.62,24.38,23.16,8.46,25.91,1,1,1,0.00,46.33,7.62,9.30,24.38,27.43,3.05,236.69,TARP,TARP,77.66,10.22,7.87,2.35,12,2,0,Yes
! <Zone Internal Gains Nominal>,Zone Name, Floor Area {m2},# Occupants,Area per Occupant {m2/person},Occupant per Area {person/m2},Interior Lighting {W/m2},Electric Load {W/m2},Gas Load {W/m2},Other Load {W/m2},Hot Water Eq {W/m2},Steam Equipment {W/m2},Sum Loads per Area {W/m2},Outdoor Controlled Baseboard Heat
 Zone Internal Gains Nominal, ALL_ST=OFFICE ENCLOSED <= 25 M2_FL=BUILDING STORY 1_SCH=A,88.25,4.4,19.993,5.002E-002,4.800,3.751,0.000,0.000,0.000,0.000,8.551,No
 Zone Internal Gains Nominal, DU_BT=SPACE FUNCTION_ST=DWELLING UNITS GENERAL_FL=BUILDING STORY 10_SCHG,88.25,3.5,24.991,4.001E-002,3.000,2.501,0.000,0.000,0.000,0.000,5.501,No
 Zone Internal Gains Nominal, DU_BT=SPACE FUNCTION_ST=DWELLING UNITS GENERAL_FL=BUILDING STORY 10_SCHG 1,88.25,3.5,24.991,4.001E-002,3.000,2.501,0.000,0.000,0.000,0.000,5.501,No
 Zone Internal Gains Nominal, DU_BT=SPACE FUNCTION_ST=DWELLING UNITS GENERAL_FL=BUILDING STORY 10_SCHG 2,88.25,3.5,24.991,4.001E-002,3.000,2.501,0.000,0.000,0.000,0.000,5.501,No
 Zone Internal Gains Nominal, DU_BT=SPACE FUNCTION_ST=DWELLING UNITS GENERAL_FL=BUILDING STORY 10_SCHG 3,88.25,3.5,24.991,4.001E-002,3.000,2.501,0.000,0.000,0.000,0.000,5.501,No
 Zone Internal Gains Nominal, DU_BT=SPACE FUNCTION_ST=DWELLING UNITS GENERAL_FL=BUILDING STORY 10_SCHG 4,88.25,3.5,24.991,4.001E-002,3.000,2.501,0.000,0.000,0.000,0.000,5.501,No
 Zone Internal Gains Nominal, DU_BT=SPACE FUNCTION_ST=DWELLING UNITS GENERAL_FL=BUILDING STORY 10_SCHG 5,88.25,3.5,24.991,4.001E-002,3.000,2.501,0.000,0.000,0.000,0.000,5.501,No
 Zone Internal Gains Nominal, DU_BT=SPACE FUNCTION_ST=DWELLING UNITS GENERAL_FL=BUILDING STORY 10_SCHG 6,88.25,3.5,24.991,4.001E-002,3.000,2.501,0.000,0.000,0.000,0.000,5.501,No
 Zone Internal Gains Nominal, DU_BT=SPACE FUNCTION_ST=DWELLING UNITS GENERAL_FL=BUILDING STORY 10_SCHG 7,88.25,3.5,24.991,4.001E-002,3.000,2.501,0.000,0.000,0.000,0.000,5.501,No
 Zone Internal Gains Nominal, DU_BT=SPACE FUNCTION_ST=DWELLING UNITS GENERAL_FL=BUILDING STORY 1_SCHG,88.25,3.5,24.991,4.001E-002,3.000,2.501,0.000,0.000,0.000,0.000,5.501,No
 Zone Internal Gains Nominal, DU_BT=SPACE FUNCTION_ST=DWELLING UNITS GENERAL_FL=BUILDING STORY 1_SCHG 1,88.25,3.5,24.991,4.001E-002,3.000,2.501,0.000,0.000,0.000,0.000,5.501,No
 Zone Internal Gains Nominal, DU_BT=SPACE FUNCTION_ST=DWELLING UNITS GENERAL_FL=BUILDING STORY 1_SCHG 2,88.25,3.5,24.991,4.001E-002,3.000,2.501,0.000,0.000,0.000,0.000,5.501,No
 Zone Internal Gains Nominal, DU_BT=SPACE FUNCTION_ST=DWELLING UNITS GENERAL_FL=BUILDING STORY 1_SCHG 3,88.25,3.5,24.991,4.001E-002,3.000,2.501,0.000,0.000,0.000,0.000,5.501,No
 Zone Internal Gains Nominal, DU_BT=SPACE FUNCTION_ST=DWELLING UNITS GENERAL_FL=BUILDING STORY 1_SCHG 4,88.25,3.5,24.991,4.001E-002,3.000,2.501,0.000,0.000,0.000,0.000,5.501,No
 Zone Internal Gains Nominal, DU_BT=SPACE FUNCTION_ST=DWELLING UNITS GENERAL_FL=BUILDING STORY 1_SCHG 5,88.25,3.5,24.991,4.001E-002,3.000,2.501,0.000,0.000,0.000,0.000,5.501,No
 Zone Internal Gains Nominal, DU_BT=SPACE FUNCTION_ST=DWELLING UNITS GENERAL_FL=BUILDING STORY 1_SCHG 6,88.25,3.5,24.991,4.001E-002,3.000,2.501,0.000,0.000,0.000,0.000,5.501,No
 Zone Internal Gains Nominal, DU_BT=SPACE FUNCTION_ST=DWELLING UNITS GENERAL_FL=BUILDING STORY 2_SCHG,88.25,3.5,24.991,4.001E-002,3.000,2.501,0.000,0.000,0.000,0.000,5.501,No
 Zone Internal Gains Nominal, DU_BT=SPACE FUNCTION_ST=DWELLING UNITS GENERAL_FL=BUILDING STORY 2_SCHG 1,88.25,3.5,24.991,4.001E-002,3.000,2.501,0.000,0.000,0.000,0.000,5.501,No
 Zone Internal Gains Nominal, DU_BT=SPACE FUNCTION_ST=DWELLING UNITS GENERAL_FL=BUILDING STORY 2_SCHG 2,88.25,3.5,24.991,4.001E-002,3.000,2.501,0.000,0.000,0.000,0.000,5.501,No
 Zone Internal Gains Nominal, DU_BT=SPACE FUNCTION_ST=DWELLING UNITS GENERAL_FL=BUILDING STORY 2_SCHG 3,88.25,3.5,24.991,4.001E-002,3.000,2.501,0.000,0.000,0.000,0.000,5.501,No
 Zone Internal Gains Nominal, DU_BT=SPACE FUNCTION_ST=DWELLING UNITS GENERAL_FL=BUILDING STORY 2_SCHG 4,88.25,3.5,24.991,4.001E-002,3.000,2.501,0.000,0.000,0.000,0.000,5.501,No
 Zone Internal Gains Nominal, DU_BT=SPACE FUNCTION_ST=DWELLING UNITS GENERAL_FL=BUILDING STORY 2_SCHG 5,88.25,3.5,24.991,4.001E-002,3.000,2.501,0.000,0.000,0.000,0.000,5.501,No
 Zone Internal Gains Nominal, DU_BT=SPACE FUNCTION_ST=DWELLING UNITS GENERAL_FL=BUILDING STORY 2_SCHG 6,88.25,3.5,24.991,4.001E-002,3.000,2.501,0.000,0.000,0.000,0.000,5.501,No
 Zone Internal Gains Nominal, DU_BT=SPACE FUNCTION_ST=DWELLING UNITS GENERAL_FL=BUILDING STORY 2_SCHG 7,88.25,3.5,24.991,4.001E-002,3.000,2.501,0.000,0.000,0.000,0.000,5.501,No
 Zone Internal Gains Nominal, DU_BT=SPACE FUNCTION_ST=DWELLING UNITS GENERAL_FL=BUILDING STORY 3_SCHG,88.25,3.5,24.991,4.001E-002,3.000,2.501,0.000,0.000,0.000,0.000,5.501,No
 Zone Internal Gains Nominal, DU_BT=SPACE FUNCTION_ST=DWELLING UNITS GENERAL_FL=BUILDING STORY 3_SCHG 1,88.25,3.5,24.991,4.001E-002,3.000,2.501,0.000,0.000,0.000,0.000,5.501,No
 Zone Internal Gains Nominal, DU_BT=SPACE FUNCTION_ST=DWELLING UNITS GENERAL_FL=BUILDING STORY 3_SCHG 2,88.25,3.5,24.991,4.001E-002,3.000,2.501,0.000,0.000,0.000,0.000,5.501,No
 Zone Internal Gains Nominal, DU_BT=SPACE FUNCTION_ST=DWELLING UNITS GENERAL_FL=BUILDING STORY 3_SCHG 3,88.25,3.5,24.991,4.001E-002,3.000,2.501,0.000,0.000,0.000,0.000,5.501,No
 Zone Internal Gains Nominal, DU_BT=SPACE FUNCTION_ST=DWELLING UNITS GENERAL_FL=BUILDING STORY 3_SCHG 4,88.25,3.5,24.991,4.001E-002,3.000,2.501,0.000,0.000,0.000,0.000,5.501,No
 Zone Internal Gains Nominal, DU_BT=SPACE FUNCTION_ST=DWELLING UNITS GENERAL_FL=BUILDING STORY 3_SCHG 5,88.25,3.5,24.991,4.001E-002,3.000,2.501,0.000,0.000,0.000,0.000,5.501,No
 Zone Internal Gains Nominal, DU_BT=SPACE FUNCTION_ST=DWELLING UNITS GENERAL_FL=BUILDING STORY 3_SCHG 6,88.25,3.5,24.991,4.001E-002,3.000,2.501,0.000,0.000,0.000,0.000,5.501,No
 Zone Internal Gains Nominal, DU_BT=SPACE FUNCTION_ST=DWELLING UNITS GENERAL_FL=BUILDING STORY 3_SCHG 7,88.25,3.5,24.991,4.001E-002,3.000,2.501,0.000,0.000,0.000,0.000,5.501,No
 Zone Internal Gains Nominal, DU_BT=SPACE FUNCTION_ST=DWELLING UNITS GENERAL_FL=BUILDING STORY 4_SCHG,88.25,3.5,24.991,4.001E-002,3.000,2.501,0.000,0.000,0.000,0.000,5.501,No
 Zone Internal Gains Nominal, DU_BT=SPACE FUNCTION_ST=DWELLING UNITS GENERAL_FL=BUILDING STORY 4_SCHG 1,88.25,3.5,24.991,4.001E-002,3.000,2.501,0.000,0.000,0.000,0.000,5.501,No
 Zone Internal Gains Nominal, DU_BT=SPACE FUNCTION_ST=DWELLING UNITS GENERAL_FL=BUILDING STORY 4_SCHG 2,88.25,3.5,24.991,4.001E-002,3.000,2.501,0.000,0.000,0.000,0.000,5.501,No
 Zone Internal Gains Nominal, DU_BT=SPACE FUNCTION_ST=DWELLING UNITS GENERAL_FL=BUILDING STORY 4_SCHG 3,88.25,3.5,24.991,4.001E-002,3.000,2.501,0.000,0.000,0.000,0.000,5.501,No
 Zone Internal Gains Nominal, DU_BT=SPACE FUNCTION_ST=DWELLING UNITS GENERAL_FL=BUILDING STORY 4_SCHG 4,88.25,3.5,24.991,4.001E-002,3.000,2.501,0.000,0.000,0.000,0.000,5.501,No
 Zone Internal Gains Nominal, DU_BT=SPACE FUNCTION_ST=DWELLING UNITS GENERAL_FL=BUILDING STORY 4_SCHG 5,88.25,3.5,24.991,4.001E-002,3.000,2.501,0.000,0.000,0.000,0.000,5.501,No
 Zone Internal Gains Nominal, DU_BT=SPACE FUNCTION_ST=DWELLING UNITS GENERAL_FL=BUILDING STORY 4_SCHG 6,88.25,3.5,24.991,4.001E-002,3.000,2.501,0.000,0.000,0.000,0.000,5.501,No
 Zone Internal Gains Nominal, DU_BT=SPACE FUNCTION_ST=DWELLING UNITS GENERAL_FL=BUILDING STORY 4_SCHG 7,88.25,3.5,24.991,4.001E-002,3.000,2.501,0.000,0.000,0.000,0.000,5.501,No
 Zone Internal Gains Nominal, DU_BT=SPACE FUNCTION_ST=DWELLING UNITS GENERAL_FL=BUILDING STORY 5_SCHG,88.25,3.5,24.991,4.001E-002,3.000,2.501,0.000,0.000,0.000,0.000,5.501,No
 Zone Internal Gains Nominal, DU_BT=SPACE FUNCTION_ST=DWELLING UNITS GENERAL_FL=BUILDING STORY 5_SCHG 1,88.25,3.5,24.991,4.001E-002,3.000,2.501,0.000,0.000,0.000,0.000,5.501,No
 Zone Internal Gains Nominal, DU_BT=SPACE FUNCTION_ST=DWELLING UNITS GENERAL_FL=BUILDING STORY 5_SCHG 2,88.25,3.5,24.991,4.001E-002,3.000,2.501,0.000,0.000,0.000,0.000,5.501,No
 Zone Internal Gains Nominal, DU_BT=SPACE FUNCTION_ST=DWELLING UNITS GENERAL_FL=BUILDING STORY 5_SCHG 3,88.25,3.5,24.991,4.001E-002,3.000,2.501,0.000,0.000,0.000,0.000,5.501,No
 Zone Internal Gains Nominal, DU_BT=SPACE FUNCTION_ST=DWELLING UNITS GENERAL_FL=BUILDING STORY 5_SCHG 4,88.25,3.5,24.991,4.001E-002,3.000,2.501,0.000,0.000,0.000,0.000,5.501,No
 Zone Internal Gains Nominal, DU_BT=SPACE FUNCTION_ST=DWELLING UNITS GENERAL_FL=BUILDING STORY 5_SCHG 5,88.25,3.5,24.991,4.001E-002,3.000,2.501,0.000,0.000,0.000,0.000,5.501,No
 Zone Internal Gains Nominal, DU_BT=SPACE FUNCTION_ST=DWELLING UNITS GENERAL_FL=BUILDING STORY 5_SCHG 6,88.25,3.5,24.991,4.001E-002,3.000,2.501,0.000,0.000,0.000,0.000,5.501,No
 Zone Internal Gains Nominal, DU_BT=SPACE FUNCTION_ST=DWELLING UNITS GENERAL_FL=BUILDING STORY 5_SCHG 7,88.25,3.5,24.991,4.001E-002,3.000,2.501,0.000,0.000,0.000,0.000,5.501,No
 Zone Internal Gains Nominal, DU_BT=SPACE FUNCTION_ST=DWELLING UNITS GENERAL_FL=BUILDING STORY 6_SCHG,88.25,3.5,24.991,4.001E-002,3.000,2.501,0.000,0.000,0.000,0.000,5.501,No
 Zone Internal Gains Nominal, DU_BT=SPACE FUNCTION_ST=DWELLING UNITS GENERAL_FL=BUILDING STORY 6_SCHG 1,88.25,3.5,24.991,4.001E-002,3.000,2.501,0.000,0.000,0.000,0.000,5.501,No
 Zone Internal Gains Nominal, DU_BT=SPACE FUNCTION_ST=DWELLING UNITS GENERAL_FL=BUILDING STORY 6_SCHG 2,88.25,3.5,24.991,4.001E-002,3.000,2.501,0.000,0.000,0.000,0.000,5.501,No
 Zone Internal Gains Nominal, DU_BT=SPACE FUNCTION_ST=DWELLING UNITS GENERAL_FL=BUILDING STORY 6_SCHG 3,88.25,3.5,24.991,4.001E-002,3.000,2.501,0.000,0.000,0.000,0.000,5.501,No
 Zone Internal Gains Nominal, DU_BT=SPACE FUNCTION_ST=DWELLING UNITS GENERAL_FL=BUILDING STORY 6_SCHG 4,88.25,3.5,24.991,4.001E-002,3.000,2.501,0.000,0.000,0.000,0.000,5.501,No
 Zone Internal Gains Nominal, DU_BT=SPACE FUNCTION_ST=DWELLING UNITS GENERAL_FL=BUILDING STORY 6_SCHG 5,88.25,3.5,24.991,4.001E-002,3.000,2.501,0.000,0.000,0.000,0.000,5.501,No
 Zone Internal Gains Nominal, DU_BT=SPACE FUNCTION_ST=DWELLING UNITS GENERAL_FL=BUILDING STORY 6_SCHG 6,88.25,3.5,24.991,4.001E-002,3.000,2.501,0.000,0.000,0.000,0.000,5.501,No
 Zone Internal Gains Nominal, DU_BT=SPACE FUNCTION_ST=DWELLING UNITS GENERAL_FL=BUILDING STORY 6_SCHG 7,88.25,3.5,24.991,4.001E-002,3.000,2.501,0.000,0.000,0.000,0.000,5.501,No
 Zone Internal Gains Nominal, DU_BT=SPACE FUNCTION_ST=DWELLING UNITS GENERAL_FL=BUILDING STORY 7_SCHG,88.25,3.5,24.991,4.001E-002,3.000,2.501,0.000,0.000,0.000,0.000,5.501,No
 Zone Internal Gains Nominal, DU_BT=SPACE FUNCTION_ST=DWELLING UNITS GENERAL_FL=BUILDING STORY 7_SCHG 1,88.25,3.5,24.991,4.001E-002,3.000,2.501,0.000,0.000,0.000,0.000,5.501,No
 Zone Internal Gains Nominal, DU_BT=SPACE FUNCTION_ST=DWELLING UNITS GENERAL_FL=BUILDING STORY 7_SCHG 2,88.25,3.5,24.991,4.001E-002,3.000,2.501,0.000,0.000,0.000,0.000,5.501,No
 Zone Internal Gains Nominal, DU_BT=SPACE FUNCTION_ST=DWELLING UNITS GENERAL_FL=BUILDING STORY 7_SCHG 3,88.25,3.5,24.991,4.001E-002,3.000,2.501,0.000,0.000,0.000,0.000,5.501,No
 Zone Internal Gains Nominal, DU_BT=SPACE FUNCTION_ST=DWELLING UNITS GENERAL_FL=BUILDING STORY 7_SCHG 4,88.25,3.5,24.991,4.001E-002,3.000,2.501,0.000,0.000,0.000,0.000,5.501,No
 Zone Internal Gains Nominal, DU_BT=SPACE FUNCTION_ST=DWELLING UNITS GENERAL_FL=BUILDING STORY 7_SCHG 5,88.25,3.5,24.991,4.001E-002,3.000,2.501,0.000,0.000,0.000,0.000,5.501,No
 Zone Internal Gains Nominal, DU_BT=SPACE FUNCTION_ST=DWELLING UNITS GENERAL_FL=BUILDING STORY 7_SCHG 6,88.25,3.5,24.991,4.001E-002,3.000,2.501,0.000,0.000,0.000,0.000,5.501,No
 Zone Internal Gains Nominal, DU_BT=SPACE FUNCTION_ST=DWELLING UNITS GENERAL_FL=BUILDING STORY 7_SCHG 7,88.25,3.5,24.991,4.001E-002,3.000,2.501,0.000,0.000,0.000,0.000,5.501,No
 Zone Internal Gains Nominal, DU_BT=SPACE FUNCTION_ST=DWELLING UNITS GENERAL_FL=BUILDING STORY 8_SCHG,88.25,3.5,24.991,4.001E-002,3.000,2.501,0.000,0.000,0.000,0.000,5.501,No
 Zone Internal Gains Nominal, DU_BT=SPACE FUNCTION_ST=DWELLING UNITS GENERAL_FL=BUILDING STORY 8_SCHG 1,88.25,3.5,24.991,4.001E-002,3.000,2.501,0.000,0.000,0.000,0.000,5.501,No
 Zone Internal Gains Nominal, DU_BT=SPACE FUNCTION_ST=DWELLING UNITS GENERAL_FL=BUILDING STORY 8_SCHG 2,88.25,3.5,24.991,4.001E-002,3.000,2.501,0.000,0.000,0.000,0.000,5.501,No
 Zone Internal Gains Nominal, DU_BT=SPACE FUNCTION_ST=DWELLING UNITS GENERAL_FL=BUILDING STORY 8_SCHG 3,88.25,3.5,24.991,4.001E-002,3.000,2.501,0.000,0.000,0.000,0.000,5.501,No
 Zone Internal Gains Nominal, DU_BT=SPACE FUNCTION_ST=DWELLING UNITS GENERAL_FL=BUILDING STORY 8_SCHG 4,88.25,3.5,24.991,4.001E-002,3.000,2.501,0.000,0.000,0.000,0.000,5.501,No
 Zone Internal Gains Nominal, DU_BT=SPACE FUNCTION_ST=DWELLING UNITS GENERAL_FL=BUILDING STORY 8_SCHG 5,88.25,3.5,24.991,4.001E-002,3.000,2.501,0.000,0.000,0.000,0.000,5.501,No
 Zone Internal Gains Nominal, DU_BT=SPACE FUNCTION_ST=DWELLING UNITS GENERAL_FL=BUILDING STORY 8_SCHG 6,88.25,3.5,24.991,4.001E-002,3.000,2.501,0.000,0.000,0.000,0.000,5.501,No
 Zone Internal Gains Nominal, DU_BT=SPACE FUNCTION_ST=DWELLING UNITS GENERAL_FL=BUILDING STORY 8_SCHG 7,88.25,3.5,24.991,4.001E-002,3.000,2.501,0.000,0.000,0.000,0.000,5.501,No
 Zone Internal Gains Nominal, DU_BT=SPACE FUNCTION_ST=DWELLING UNITS GENERAL_FL=BUILDING STORY 9_SCHG,88.25,3.5,24.991,4.001E-002,3.000,2.501,0.000,0.000,0.000,0.000,5.501,No
 Zone Internal Gains Nominal, DU_BT=SPACE FUNCTION_ST=DWELLING UNITS GENERAL_FL=BUILDING STORY 9_SCHG 1,88.25,3.5,24.991,4.001E-002,3.000,2.501,0.000,0.000,0.000,0.000,5.501,No
 Zone Internal Gains Nominal, DU_BT=SPACE FUNCTION_ST=DWELLING UNITS GENERAL_FL=BUILDING STORY 9_SCHG 2,88.25,3.5,24.991,4.001E-002,3.000,2.501,0.000,0.000,0.000,0.000,5.501,No
 Zone Internal Gains Nominal, DU_BT=SPACE FUNCTION_ST=DWELLING UNITS GENERAL_FL=BUILDING STORY 9_SCHG 3,88.25,3.5,24.991,4.001E-002,3.000,2.501,0.000,0.000,0.000,0.000,5.501,No
 Zone Internal Gains Nominal, DU_BT=SPACE FUNCTION_ST=DWELLING UNITS GENERAL_FL=BUILDING STORY 9_SCHG 4,88.25,3.5,24.991,4.001E-002,3.000,2.501,0.000,0.000,0.000,0.000,5.501,No
 Zone Internal Gains Nominal, DU_BT=SPACE FUNCTION_ST=DWELLING UNITS GENERAL_FL=BUILDING STORY 9_SCHG 5,88.25,3.5,24.991,4.001E-002,3.000,2.501,0.000,0.000,0.000,0.000,5.501,No
 Zone Internal Gains Nominal, DU_BT=SPACE FUNCTION_ST=DWELLING UNITS GENERAL_FL=BUILDING STORY 9_SCHG 6,88.25,3.5,24.991,4.001E-002,3.000,2.501,0.000,0.000,0.000,0.000,5.501,No
 Zone Internal Gains Nominal, DU_BT=SPACE FUNCTION_ST=DWELLING UNITS GENERAL_FL=BUILDING STORY 9_SCHG 7,88.25,3.5,24.991,4.001E-002,3.000,2.501,0.000,0.000,0.000,0.000,5.501,No
 Zone Internal Gains Nominal, WILD_ST=CORRIDOR/TRANSITION AREA OTHER-SCH-G_FL=BUILDING STORY 10_SCH=G,77.66,0.8,99.964,1.000E-002,2.640,0.000,0.000,0.000,0.000,0.000,2.640,No
 Zone Internal Gains Nominal, WILD_ST=CORRIDOR/TRANSITION AREA OTHER-SCH-G_FL=BUILDING STORY 1_SCH=G,77.66,0.8,99.964,1.000E-002,2.640,0.000,0.000,0.000,0.000,0.000,2.640,No
 Zone Internal Gains Nominal, WILD_ST=CORRIDOR/TRANSITION AREA OTHER-SCH-G_FL=BUILDING STORY 2_SCH=G,77.66,0.8,99.964,1.000E-002,2.640,0.000,0.000,0.000,0.000,0.000,2.640,No
 Zone Internal Gains Nominal, WILD_ST=CORRIDOR/TRANSITION AREA OTHER-SCH-G_FL=BUILDING STORY 3_SCH=G,77.66,0.8,99.964,1.000E-002,2.640,0.000,0.000,0.000,0.000,0.000,2.640,No
 Zone Internal Gains Nominal, WILD_ST=CORRIDOR/TRANSITION AREA OTHER-SCH-G_FL=BUILDING STORY 4_SCH=G,77.66,0.8,99.964,1.000E-002,2.640,0.000,0.000,0.000,0.000,0.000,2.640,No
 Zone Internal Gains Nominal, WILD_ST=CORRIDOR/TRANSITION AREA OTHER-SCH-G_FL=BUILDING STORY 5_SCH=G,77.66,0.8,99.964,1.000E-002,2.640,0.000,0.000,0.000,0.000,0.000,2.640,No
 Zone Internal Gains Nominal, WILD_ST=CORRIDOR/TRANSITION AREA OTHER-SCH-G_FL=BUILDING STORY 6_SCH=G,77.66,0.8,99.964,1.000E-002,2.640,0.000,0.000,0.000,0.000,0.000,2.640,No
 Zone Internal Gains Nominal, WILD_ST=CORRIDOR/TRANSITION AREA OTHER-SCH-G_FL=BUILDING STORY 7_SCH=G,77.66,0.8,99.964,1.000E-002,2.640,0.000,0.000,0.000,0.000,0.000,2.640,No
 Zone Internal Gains Nominal, WILD_ST=CORRIDOR/TRANSITION AREA OTHER-SCH-G_FL=BUILDING STORY 8_SCH=G,77.66,0.8,99.964,1.000E-002,2.640,0.000,0.000,0.000,0.000,0.000,2.640,No
 Zone Internal Gains Nominal, WILD_ST=CORRIDOR/TRANSITION AREA OTHER-SCH-G_FL=BUILDING STORY 9_SCH=G,77.66,0.8,99.964,1.000E-002,2.640,0.000,0.000,0.000,0.000,0.000,2.640,No
! <People Internal Gains Nominal>,Name,Schedule Name,Zone Name,Zone Floor Area {m2},# Zone Occupants,Number of People {},People/Floor Area {person/m2},Floor Area per person {m2/person},Fraction Radiant,Fraction Convected,Sensible Fraction Calculation,Activity level,ASHRAE 55 Warnings,Carbon Dioxide Generation Rate,Nominal Minimum Number of People,Nominal Maximum Number of People
 People Internal Gains Nominal, WILD_ST=CORRIDOR/TRANSITION AREA OTHER-SCH-G_FL=BUILDING STORY 10_SCH=G SPACE FUNCTION CORRIDOR/TRANSITION AREA OTHER-SCH-G PEOPLE,NECB-G-OCCUPANCY,WILD_ST=CORRIDOR/TRANSITION AREA OTHER-SCH-G_FL=BUILDING STORY 10_SCH=G,77.66,0.8,0.8,1.000E-002,99.964,0.300,0.700,AutoCalculate,NECB-ACTIVITY,No,3.8200E-008,0,1
 People Internal Gains Nominal, WILD_ST=CORRIDOR/TRANSITION AREA OTHER-SCH-G_FL=BUILDING STORY 1_SCH=G SPACE FUNCTION CORRIDOR/TRANSITION AREA OTHER-SCH-G PEOPLE,NECB-G-OCCUPANCY,WILD_ST=CORRIDOR/TRANSITION AREA OTHER-SCH-G_FL=BUILDING STORY 1_SCH=G,77.66,0.8,0.8,1.000E-002,99.964,0.300,0.700,AutoCalculate,NECB-ACTIVITY,No,3.8200E-008,0,1
 People Internal Gains Nominal, WILD_ST=CORRIDOR/TRANSITION AREA OTHER-SCH-G_FL=BUILDING STORY 2_SCH=G SPACE FUNCTION CORRIDOR/TRANSITION AREA OTHER-SCH-G PEOPLE,NECB-G-OCCUPANCY,WILD_ST=CORRIDOR/TRANSITION AREA OTHER-SCH-G_FL=BUILDING STORY 2_SCH=G,77.66,0.8,0.8,1.000E-002,99.964,0.300,0.700,AutoCalculate,NECB-ACTIVITY,No,3.8200E-008,0,1
 People Internal Gains Nominal, WILD_ST=CORRIDOR/TRANSITION AREA OTHER-SCH-G_FL=BUILDING STORY 3_SCH=G SPACE FUNCTION CORRIDOR/TRANSITION AREA OTHER-SCH-G PEOPLE,NECB-G-OCCUPANCY,WILD_ST=CORRIDOR/TRANSITION AREA OTHER-SCH-G_FL=BUILDING STORY 3_SCH=G,77.66,0.8,0.8,1.000E-002,99.964,0.300,0.700,AutoCalculate,NECB-ACTIVITY,No,3.8200E-008,0,1
 People Internal Gains Nominal, WILD_ST=CORRIDOR/TRANSITION AREA OTHER-SCH-G_FL=BUILDING STORY 4_SCH=G SPACE FUNCTION CORRIDOR/TRANSITION AREA OTHER-SCH-G PEOPLE,NECB-G-OCCUPANCY,WILD_ST=CORRIDOR/TRANSITION AREA OTHER-SCH-G_FL=BUILDING STORY 4_SCH=G,77.66,0.8,0.8,1.000E-002,99.964,0.300,0.700,AutoCalculate,NECB-ACTIVITY,No,3.8200E-008,0,1
 People Internal Gains Nominal, WILD_ST=CORRIDOR/TRANSITION AREA OTHER-SCH-G_FL=BUILDING STORY 5_SCH=G SPACE FUNCTION CORRIDOR/TRANSITION AREA OTHER-SCH-G PEOPLE,NECB-G-OCCUPANCY,WILD_ST=CORRIDOR/TRANSITION AREA OTHER-SCH-G_FL=BUILDING STORY 5_SCH=G,77.66,0.8,0.8,1.000E-002,99.964,0.300,0.700,AutoCalculate,NECB-ACTIVITY,No,3.8200E-008,0,1
 People Internal Gains Nominal, WILD_ST=CORRIDOR/TRANSITION AREA OTHER-SCH-G_FL=BUILDING STORY 6_SCH=G SPACE FUNCTION CORRIDOR/TRANSITION AREA OTHER-SCH-G PEOPLE,NECB-G-OCCUPANCY,WILD_ST=CORRIDOR/TRANSITION AREA OTHER-SCH-G_FL=BUILDING STORY 6_SCH=G,77.66,0.8,0.8,1.000E-002,99.964,0.300,0.700,AutoCalculate,NECB-ACTIVITY,No,3.8200E-008,0,1
 People Internal Gains Nominal, WILD_ST=CORRIDOR/TRANSITION AREA OTHER-SCH-G_FL=BUILDING STORY 7_SCH=G SPACE FUNCTION CORRIDOR/TRANSITION AREA OTHER-SCH-G PEOPLE,NECB-G-OCCUPANCY,WILD_ST=CORRIDOR/TRANSITION AREA OTHER-SCH-G_FL=BUILDING STORY 7_SCH=G,77.66,0.8,0.8,1.000E-002,99.964,0.300,0.700,AutoCalculate,NECB-ACTIVITY,No,3.8200E-008,0,1
 People Internal Gains Nominal, WILD_ST=CORRIDOR/TRANSITION AREA OTHER-SCH-G_FL=BUILDING STORY 8_SCH=G SPACE FUNCTION CORRIDOR/TRANSITION AREA OTHER-SCH-G PEOPLE,NECB-G-OCCUPANCY,WILD_ST=CORRIDOR/TRANSITION AREA OTHER-SCH-G_FL=BUILDING STORY 8_SCH=G,77.66,0.8,0.8,1.000E-002,99.964,0.300,0.700,AutoCalculate,NECB-ACTIVITY,No,3.8200E-008,0,1
 People Internal Gains Nominal, WILD_ST=CORRIDOR/TRANSITION AREA OTHER-SCH-G_FL=BUILDING STORY 9_SCH=G SPACE FUNCTION CORRIDOR/TRANSITION AREA OTHER-SCH-G PEOPLE,NECB-G-OCCUPANCY,WILD_ST=CORRIDOR/TRANSITION AREA OTHER-SCH-G_FL=BUILDING STORY 9_SCH=G,77.66,0.8,0.8,1.000E-002,99.964,0.300,0.700,AutoCalculate,NECB-ACTIVITY,No,3.8200E-008,0,1
 People Internal Gains Nominal, DU_BT=SPACE FUNCTION_ST=DWELLING UNITS GENERAL_FL=BUILDING STORY 10_SCHG SPACE FUNCTION DWELLING UNITS GENERAL PEOPLE,NECB-G-OCCUPANCY,DU_BT=SPACE FUNCTION_ST=DWELLING UNITS GENERAL_FL=BUILDING STORY 10_SCHG,88.25,3.5,3.5,4.001E-002,24.991,0.300,0.700,AutoCalculate,NECB-ACTIVITY,No,3.8200E-008,1,3
 People Internal Gains Nominal, DU_BT=SPACE FUNCTION_ST=DWELLING UNITS GENERAL_FL=BUILDING STORY 10_SCHG 1 SPACE FUNCTION DWELLING UNITS GENERAL PEOPLE,NECB-G-OCCUPANCY,DU_BT=SPACE FUNCTION_ST=DWELLING UNITS GENERAL_FL=BUILDING STORY 10_SCHG 1,88.25,3.5,3.5,4.001E-002,24.991,0.300,0.700,AutoCalculate,NECB-ACTIVITY,No,3.8200E-008,1,3
 People Internal Gains Nominal, DU_BT=SPACE FUNCTION_ST=DWELLING UNITS GENERAL_FL=BUILDING STORY 10_SCHG 2 SPACE FUNCTION DWELLING UNITS GENERAL PEOPLE,NECB-G-OCCUPANCY,DU_BT=SPACE FUNCTION_ST=DWELLING UNITS GENERAL_FL=BUILDING STORY 10_SCHG 2,88.25,3.5,3.5,4.001E-002,24.991,0.300,0.700,AutoCalculate,NECB-ACTIVITY,No,3.8200E-008,1,3
 People Internal Gains Nominal, DU_BT=SPACE FUNCTION_ST=DWELLING UNITS GENERAL_FL=BUILDING STORY 10_SCHG 3 SPACE FUNCTION DWELLING UNITS GENERAL PEOPLE,NECB-G-OCCUPANCY,DU_BT=SPACE FUNCTION_ST=DWELLING UNITS GENERAL_FL=BUILDING STORY 10_SCHG 3,88.25,3.5,3.5,4.001E-002,24.991,0.300,0.700,AutoCalculate,NECB-ACTIVITY,No,3.8200E-008,1,3
 People Internal Gains Nominal, DU_BT=SPACE FUNCTION_ST=DWELLING UNITS GENERAL_FL=BUILDING STORY 10_SCHG 4 SPACE FUNCTION DWELLING UNITS GENERAL PEOPLE,NECB-G-OCCUPANCY,DU_BT=SPACE FUNCTION_ST=DWELLING UNITS GENERAL_FL=BUILDING STORY 10_SCHG 4,88.25,3.5,3.5,4.001E-002,24.991,0.300,0.700,AutoCalculate,NECB-ACTIVITY,No,3.8200E-008,1,3
 People Internal Gains Nominal, DU_BT=SPACE FUNCTION_ST=DWELLING UNITS GENERAL_FL=BUILDING STORY 10_SCHG 5 SPACE FUNCTION DWELLING UNITS GENERAL PEOPLE,NECB-G-OCCUPANCY,DU_BT=SPACE FUNCTION_ST=DWELLING UNITS GENERAL_FL=BUILDING STORY 10_SCHG 5,88.25,3.5,3.5,4.001E-002,24.991,0.300,0.700,AutoCalculate,NECB-ACTIVITY,No,3.8200E-008,1,3
 People Internal Gains Nominal, DU_BT=SPACE FUNCTION_ST=DWELLING UNITS GENERAL_FL=BUILDING STORY 10_SCHG 6 SPACE FUNCTION DWELLING UNITS GENERAL PEOPLE,NECB-G-OCCUPANCY,DU_BT=SPACE FUNCTION_ST=DWELLING UNITS GENERAL_FL=BUILDING STORY 10_SCHG 6,88.25,3.5,3.5,4.001E-002,24.991,0.300,0.700,AutoCalculate,NECB-ACTIVITY,No,3.8200E-008,1,3
 People Internal Gains Nominal, DU_BT=SPACE FUNCTION_ST=DWELLING UNITS GENERAL_FL=BUILDING STORY 10_SCHG 7 SPACE FUNCTION DWELLING UNITS GENERAL PEOPLE,NECB-G-OCCUPANCY,DU_BT=SPACE FUNCTION_ST=DWELLING UNITS GENERAL_FL=BUILDING STORY 10_SCHG 7,88.25,3.5,3.5,4.001E-002,24.991,0.300,0.700,AutoCalculate,NECB-ACTIVITY,No,3.8200E-008,1,3
 People Internal Gains Nominal, DU_BT=SPACE FUNCTION_ST=DWELLING UNITS GENERAL_FL=BUILDING STORY 1_SCHG SPACE FUNCTION DWELLING UNITS GENERAL PEOPLE,NECB-G-OCCUPANCY,DU_BT=SPACE FUNCTION_ST=DWELLING UNITS GENERAL_FL=BUILDING STORY 1_SCHG,88.25,3.5,3.5,4.001E-002,24.991,0.300,0.700,AutoCalculate,NECB-ACTIVITY,No,3.8200E-008,1,3
 People Internal Gains Nominal, DU_BT=SPACE FUNCTION_ST=DWELLING UNITS GENERAL_FL=BUILDING STORY 1_SCHG 1 SPACE FUNCTION DWELLING UNITS GENERAL PEOPLE,NECB-G-OCCUPANCY,DU_BT=SPACE FUNCTION_ST=DWELLING UNITS GENERAL_FL=BUILDING STORY 1_SCHG 1,88.25,3.5,3.5,4.001E-002,24.991,0.300,0.700,AutoCalculate,NECB-ACTIVITY,No,3.8200E-008,1,3
 People Internal Gains Nominal, DU_BT=SPACE FUNCTION_ST=DWELLING UNITS GENERAL_FL=BUILDING STORY 1_SCHG 2 SPACE FUNCTION DWELLING UNITS GENERAL PEOPLE,NECB-G-OCCUPANCY,DU_BT=SPACE FUNCTION_ST=DWELLING UNITS GENERAL_FL=BUILDING STORY 1_SCHG 2,88.25,3.5,3.5,4.001E-002,24.991,0.300,0.700,AutoCalculate,NECB-ACTIVITY,No,3.8200E-008,1,3
 People Internal Gains Nominal, DU_BT=SPACE FUNCTION_ST=DWELLING UNITS GENERAL_FL=BUILDING STORY 1_SCHG 3 SPACE FUNCTION DWELLING UNITS GENERAL PEOPLE,NECB-G-OCCUPANCY,DU_BT=SPACE FUNCTION_ST=DWELLING UNITS GENERAL_FL=BUILDING STORY 1_SCHG 3,88.25,3.5,3.5,4.001E-002,24.991,0.300,0.700,AutoCalculate,NECB-ACTIVITY,No,3.8200E-008,1,3
 People Internal Gains Nominal, DU_BT=SPACE FUNCTION_ST=DWELLING UNITS GENERAL_FL=BUILDING STORY 1_SCHG 4 SPACE FUNCTION DWELLING UNITS GENERAL PEOPLE,NECB-G-OCCUPANCY,DU_BT=SPACE FUNCTION_ST=DWELLING UNITS GENERAL_FL=BUILDING STORY 1_SCHG 4,88.25,3.5,3.5,4.001E-002,24.991,0.300,0.700,AutoCalculate,NECB-ACTIVITY,No,3.8200E-008,1,3
 People Internal Gains Nominal, DU_BT=SPACE FUNCTION_ST=DWELLING UNITS GENERAL_FL=BUILDING STORY 1_SCHG 5 SPACE FUNCTION DWELLING UNITS GENERAL PEOPLE,NECB-G-OCCUPANCY,DU_BT=SPACE FUNCTION_ST=DWELLING UNITS GENERAL_FL=BUILDING STORY 1_SCHG 5,88.25,3.5,3.5,4.001E-002,24.991,0.300,0.700,AutoCalculate,NECB-ACTIVITY,No,3.8200E-008,1,3
 People Internal Gains Nominal, DU_BT=SPACE FUNCTION_ST=DWELLING UNITS GENERAL_FL=BUILDING STORY 1_SCHG 6 SPACE FUNCTION DWELLING UNITS GENERAL PEOPLE,NECB-G-OCCUPANCY,DU_BT=SPACE FUNCTION_ST=DWELLING UNITS GENERAL_FL=BUILDING STORY 1_SCHG 6,88.25,3.5,3.5,4.001E-002,24.991,0.300,0.700,AutoCalculate,NECB-ACTIVITY,No,3.8200E-008,1,3
 People Internal Gains Nominal, DU_BT=SPACE FUNCTION_ST=DWELLING UNITS GENERAL_FL=BUILDING STORY 2_SCHG SPACE FUNCTION DWELLING UNITS GENERAL PEOPLE,NECB-G-OCCUPANCY,DU_BT=SPACE FUNCTION_ST=DWELLING UNITS GENERAL_FL=BUILDING STORY 2_SCHG,88.25,3.5,3.5,4.001E-002,24.991,0.300,0.700,AutoCalculate,NECB-ACTIVITY,No,3.8200E-008,1,3
 People Internal Gains Nominal, DU_BT=SPACE FUNCTION_ST=DWELLING UNITS GENERAL_FL=BUILDING STORY 2_SCHG 1 SPACE FUNCTION DWELLING UNITS GENERAL PEOPLE,NECB-G-OCCUPANCY,DU_BT=SPACE FUNCTION_ST=DWELLING UNITS GENERAL_FL=BUILDING STORY 2_SCHG 1,88.25,3.5,3.5,4.001E-002,24.991,0.300,0.700,AutoCalculate,NECB-ACTIVITY,No,3.8200E-008,1,3
 People Internal Gains Nominal, DU_BT=SPACE FUNCTION_ST=DWELLING UNITS GENERAL_FL=BUILDING STORY 2_SCHG 2 SPACE FUNCTION DWELLING UNITS GENERAL PEOPLE,NECB-G-OCCUPANCY,DU_BT=SPACE FUNCTION_ST=DWELLING UNITS GENERAL_FL=BUILDING STORY 2_SCHG 2,88.25,3.5,3.5,4.001E-002,24.991,0.300,0.700,AutoCalculate,NECB-ACTIVITY,No,3.8200E-008,1,3
 People Internal Gains Nominal, DU_BT=SPACE FUNCTION_ST=DWELLING UNITS GENERAL_FL=BUILDING STORY 2_SCHG 3 SPACE FUNCTION DWELLING UNITS GENERAL PEOPLE,NECB-G-OCCUPANCY,DU_BT=SPACE FUNCTION_ST=DWELLING UNITS GENERAL_FL=BUILDING STORY 2_SCHG 3,88.25,3.5,3.5,4.001E-002,24.991,0.300,0.700,AutoCalculate,NECB-ACTIVITY,No,3.8200E-008,1,3
 People Internal Gains Nominal, DU_BT=SPACE FUNCTION_ST=DWELLING UNITS GENERAL_FL=BUILDING STORY 2_SCHG 4 SPACE FUNCTION DWELLING UNITS GENERAL PEOPLE,NECB-G-OCCUPANCY,DU_BT=SPACE FUNCTION_ST=DWELLING UNITS GENERAL_FL=BUILDING STORY 2_SCHG 4,88.25,3.5,3.5,4.001E-002,24.991,0.300,0.700,AutoCalculate,NECB-ACTIVITY,No,3.8200E-008,1,3
 People Internal Gains Nominal, DU_BT=SPACE FUNCTION_ST=DWELLING UNITS GENERAL_FL=BUILDING STORY 2_SCHG 5 SPACE FUNCTION DWELLING UNITS GENERAL PEOPLE,NECB-G-OCCUPANCY,DU_BT=SPACE FUNCTION_ST=DWELLING UNITS GENERAL_FL=BUILDING STORY 2_SCHG 5,88.25,3.5,3.5,4.001E-002,24.991,0.300,0.700,AutoCalculate,NECB-ACTIVITY,No,3.8200E-008,1,3
 People Internal Gains Nominal, DU_BT=SPACE FUNCTION_ST=DWELLING UNITS GENERAL_FL=BUILDING STORY 2_SCHG 6 SPACE FUNCTION DWELLING UNITS GENERAL PEOPLE,NECB-G-OCCUPANCY,DU_BT=SPACE FUNCTION_ST=DWELLING UNITS GENERAL_FL=BUILDING STORY 2_SCHG 6,88.25,3.5,3.5,4.001E-002,24.991,0.300,0.700,AutoCalculate,NECB-ACTIVITY,No,3.8200E-008,1,3
 People Internal Gains Nominal, DU_BT=SPACE FUNCTION_ST=DWELLING UNITS GENERAL_FL=BUILDING STORY 2_SCHG 7 SPACE FUNCTION DWELLING UNITS GENERAL PEOPLE,NECB-G-OCCUPANCY,DU_BT=SPACE FUNCTION_ST=DWELLING UNITS GENERAL_FL=BUILDING STORY 2_SCHG 7,88.25,3.5,3.5,4.001E-002,24.991,0.300,0.700,AutoCalculate,NECB-ACTIVITY,No,3.8200E-008,1,3
 People Internal Gains Nominal, DU_BT=SPACE FUNCTION_ST=DWELLING UNITS GENERAL_FL=BUILDING STORY 3_SCHG SPACE FUNCTION DWELLING UNITS GENERAL PEOPLE,NECB-G-OCCUPANCY,DU_BT=SPACE FUNCTION_ST=DWELLING UNITS GENERAL_FL=BUILDING STORY 3_SCHG,88.25,3.5,3.5,4.001E-002,24.991,0.300,0.700,AutoCalculate,NECB-ACTIVITY,No,3.8200E-008,1,3
 People Internal Gains Nominal, DU_BT=SPACE FUNCTION_ST=DWELLING UNITS GENERAL_FL=BUILDING STORY 3_SCHG 1 SPACE FUNCTION DWELLING UNITS GENERAL PEOPLE,NECB-G-OCCUPANCY,DU_BT=SPACE FUNCTION_ST=DWELLING UNITS GENERAL_FL=BUILDING STORY 3_SCHG 1,88.25,3.5,3.5,4.001E-002,24.991,0.300,0.700,AutoCalculate,NECB-ACTIVITY,No,3.8200E-008,1,3
 People Internal Gains Nominal, DU_BT=SPACE FUNCTION_ST=DWELLING UNITS GENERAL_FL=BUILDING STORY 3_SCHG 2 SPACE FUNCTION DWELLING UNITS GENERAL PEOPLE,NECB-G-OCCUPANCY,DU_BT=SPACE FUNCTION_ST=DWELLING UNITS GENERAL_FL=BUILDING STORY 3_SCHG 2,88.25,3.5,3.5,4.001E-002,24.991,0.300,0.700,AutoCalculate,NECB-ACTIVITY,No,3.8200E-008,1,3
 People Internal Gains Nominal, DU_BT=SPACE FUNCTION_ST=DWELLING UNITS GENERAL_FL=BUILDING STORY 3_SCHG 3 SPACE FUNCTION DWELLING UNITS GENERAL PEOPLE,NECB-G-OCCUPANCY,DU_BT=SPACE FUNCTION_ST=DWELLING UNITS GENERAL_FL=BUILDING STORY 3_SCHG 3,88.25,3.5,3.5,4.001E-002,24.991,0.300,0.700,AutoCalculate,NECB-ACTIVITY,No,3.8200E-008,1,3
 People Internal Gains Nominal, DU_BT=SPACE FUNCTION_ST=DWELLING UNITS GENERAL_FL=BUILDING STORY 3_SCHG 4 SPACE FUNCTION DWELLING UNITS GENERAL PEOPLE,NECB-G-OCCUPANCY,DU_BT=SPACE FUNCTION_ST=DWELLING UNITS GENERAL_FL=BUILDING STORY 3_SCHG 4,88.25,3.5,3.5,4.001E-002,24.991,0.300,0.700,AutoCalculate,NECB-ACTIVITY,No,3.8200E-008,1,3
 People Internal Gains Nominal, DU_BT=SPACE FUNCTION_ST=DWELLING UNITS GENERAL_FL=BUILDING STORY 3_SCHG 5 SPACE FUNCTION DWELLING UNITS GENERAL PEOPLE,NECB-G-OCCUPANCY,DU_BT=SPACE FUNCTION_ST=DWELLING UNITS GENERAL_FL=BUILDING STORY 3_SCHG 5,88.25,3.5,3.5,4.001E-002,24.991,0.300,0.700,AutoCalculate,NECB-ACTIVITY,No,3.8200E-008,1,3
 People Internal Gains Nominal, DU_BT=SPACE FUNCTION_ST=DWELLING UNITS GENERAL_FL=BUILDING STORY 3_SCHG 6 SPACE FUNCTION DWELLING UNITS GENERAL PEOPLE,NECB-G-OCCUPANCY,DU_BT=SPACE FUNCTION_ST=DWELLING UNITS GENERAL_FL=BUILDING STORY 3_SCHG 6,88.25,3.5,3.5,4.001E-002,24.991,0.300,0.700,AutoCalculate,NECB-ACTIVITY,No,3.8200E-008,1,3
 People Internal Gains Nominal, DU_BT=SPACE FUNCTION_ST=DWELLING UNITS GENERAL_FL=BUILDING STORY 3_SCHG 7 SPACE FUNCTION DWELLING UNITS GENERAL PEOPLE,NECB-G-OCCUPANCY,DU_BT=SPACE FUNCTION_ST=DWELLING UNITS GENERAL_FL=BUILDING STORY 3_SCHG 7,88.25,3.5,3.5,4.001E-002,24.991,0.300,0.700,AutoCalculate,NECB-ACTIVITY,No,3.8200E-008,1,3
 People Internal Gains Nominal, DU_BT=SPACE FUNCTION_ST=DWELLING UNITS GENERAL_FL=BUILDING STORY 4_SCHG SPACE FUNCTION DWELLING UNITS GENERAL PEOPLE,NECB-G-OCCUPANCY,DU_BT=SPACE FUNCTION_ST=DWELLING UNITS GENERAL_FL=BUILDING STORY 4_SCHG,88.25,3.5,3.5,4.001E-002,24.991,0.300,0.700,AutoCalculate,NECB-ACTIVITY,No,3.8200E-008,1,3
 People Internal Gains Nominal, DU_BT=SPACE FUNCTION_ST=DWELLING UNITS GENERAL_FL=BUILDING STORY 4_SCHG 1 SPACE FUNCTION DWELLING UNITS GENERAL PEOPLE,NECB-G-OCCUPANCY,DU_BT=SPACE FUNCTION_ST=DWELLING UNITS GENERAL_FL=BUILDING STORY 4_SCHG 1,88.25,3.5,3.5,4.001E-002,24.991,0.300,0.700,AutoCalculate,NECB-ACTIVITY,No,3.8200E-008,1,3
 People Internal Gains Nominal, DU_BT=SPACE FUNCTION_ST=DWELLING UNITS GENERAL_FL=BUILDING STORY 4_SCHG 2 SPACE FUNCTION DWELLING UNITS GENERAL PEOPLE,NECB-G-OCCUPANCY,DU_BT=SPACE FUNCTION_ST=DWELLING UNITS GENERAL_FL=BUILDING STORY 4_SCHG 2,88.25,3.5,3.5,4.001E-002,24.991,0.300,0.700,AutoCalculate,NECB-ACTIVITY,No,3.8200E-008,1,3
 People Internal Gains Nominal, DU_BT=SPACE FUNCTION_ST=DWELLING UNITS GENERAL_FL=BUILDING STORY 4_SCHG 3 SPACE FUNCTION DWELLING UNITS GENERAL PEOPLE,NECB-G-OCCUPANCY,DU_BT=SPACE FUNCTION_ST=DWELLING UNITS GENERAL_FL=BUILDING STORY 4_SCHG 3,88.25,3.5,3.5,4.001E-002,24.991,0.300,0.700,AutoCalculate,NECB-ACTIVITY,No,3.8200E-008,1,3
 People Internal Gains Nominal, DU_BT=SPACE FUNCTION_ST=DWELLING UNITS GENERAL_FL=BUILDING STORY 4_SCHG 4 SPACE FUNCTION DWELLING UNITS GENERAL PEOPLE,NECB-G-OCCUPANCY,DU_BT=SPACE FUNCTION_ST=DWELLING UNITS GENERAL_FL=BUILDING STORY 4_SCHG 4,88.25,3.5,3.5,4.001E-002,24.991,0.300,0.700,AutoCalculate,NECB-ACTIVITY,No,3.8200E-008,1,3
 People Internal Gains Nominal, DU_BT=SPACE FUNCTION_ST=DWELLING UNITS GENERAL_FL=BUILDING STORY 4_SCHG 5 SPACE FUNCTION DWELLING UNITS GENERAL PEOPLE,NECB-G-OCCUPANCY,DU_BT=SPACE FUNCTION_ST=DWELLING UNITS GENERAL_FL=BUILDING STORY 4_SCHG 5,88.25,3.5,3.5,4.001E-002,24.991,0.300,0.700,AutoCalculate,NECB-ACTIVITY,No,3.8200E-008,1,3
 People Internal Gains Nominal, DU_BT=SPACE FUNCTION_ST=DWELLING UNITS GENERAL_FL=BUILDING STORY 4_SCHG 6 SPACE FUNCTION DWELLING UNITS GENERAL PEOPLE,NECB-G-OCCUPANCY,DU_BT=SPACE FUNCTION_ST=DWELLING UNITS GENERAL_FL=BUILDING STORY 4_SCHG 6,88.25,3.5,3.5,4.001E-002,24.991,0.300,0.700,AutoCalculate,NECB-ACTIVITY,No,3.8200E-008,1,3
 People Internal Gains Nominal, DU_BT=SPACE FUNCTION_ST=DWELLING UNITS GENERAL_FL=BUILDING STORY 4_SCHG 7 SPACE FUNCTION DWELLING UNITS GENERAL PEOPLE,NECB-G-OCCUPANCY,DU_BT=SPACE FUNCTION_ST=DWELLING UNITS GENERAL_FL=BUILDING STORY 4_SCHG 7,88.25,3.5,3.5,4.001E-002,24.991,0.300,0.700,AutoCalculate,NECB-ACTIVITY,No,3.8200E-008,1,3
 People Internal Gains Nominal, DU_BT=SPACE FUNCTION_ST=DWELLING UNITS GENERAL_FL=BUILDING STORY 5_SCHG SPACE FUNCTION DWELLING UNITS GENERAL PEOPLE,NECB-G-OCCUPANCY,DU_BT=SPACE FUNCTION_ST=DWELLING UNITS GENERAL_FL=BUILDING STORY 5_SCHG,88.25,3.5,3.5,4.001E-002,24.991,0.300,0.700,AutoCalculate,NECB-ACTIVITY,No,3.8200E-008,1,3
 People Internal Gains Nominal, DU_BT=SPACE FUNCTION_ST=DWELLING UNITS GENERAL_FL=BUILDING STORY 5_SCHG 1 SPACE FUNCTION DWELLING UNITS GENERAL PEOPLE,NECB-G-OCCUPANCY,DU_BT=SPACE FUNCTION_ST=DWELLING UNITS GENERAL_FL=BUILDING STORY 5_SCHG 1,88.25,3.5,3.5,4.001E-002,24.991,0.300,0.700,AutoCalculate,NECB-ACTIVITY,No,3.8200E-008,1,3
 People Internal Gains Nominal, DU_BT=SPACE FUNCTION_ST=DWELLING UNITS GENERAL_FL=BUILDING STORY 5_SCHG 2 SPACE FUNCTION DWELLING UNITS GENERAL PEOPLE,NECB-G-OCCUPANCY,DU_BT=SPACE FUNCTION_ST=DWELLING UNITS GENERAL_FL=BUILDING STORY 5_SCHG 2,88.25,3.5,3.5,4.001E-002,24.991,0.300,0.700,AutoCalculate,NECB-ACTIVITY,No,3.8200E-008,1,3
 People Internal Gains Nominal, DU_BT=SPACE FUNCTION_ST=DWELLING UNITS GENERAL_FL=BUILDING STORY 5_SCHG 3 SPACE FUNCTION DWELLING UNITS GENERAL PEOPLE,NECB-G-OCCUPANCY,DU_BT=SPACE FUNCTION_ST=DWELLING UNITS GENERAL_FL=BUILDING STORY 5_SCHG 3,88.25,3.5,3.5,4.001E-002,24.991,0.300,0.700,AutoCalculate,NECB-ACTIVITY,No,3.8200E-008,1,3
 People Internal Gains Nominal, DU_BT=SPACE FUNCTION_ST=DWELLING UNITS GENERAL_FL=BUILDING STORY 5_SCHG 4 SPACE FUNCTION DWELLING UNITS GENERAL PEOPLE,NECB-G-OCCUPANCY,DU_BT=SPACE FUNCTION_ST=DWELLING UNITS GENERAL_FL=BUILDING STORY 5_SCHG 4,88.25,3.5,3.5,4.001E-002,24.991,0.300,0.700,AutoCalculate,NECB-ACTIVITY,No,3.8200E-008,1,3
 People Internal Gains Nominal, DU_BT=SPACE FUNCTION_ST=DWELLING UNITS GENERAL_FL=BUILDING STORY 5_SCHG 5 SPACE FUNCTION DWELLING UNITS GENERAL PEOPLE,NECB-G-OCCUPANCY,DU_BT=SPACE FUNCTION_ST=DWELLING UNITS GENERAL_FL=BUILDING STORY 5_SCHG 5,88.25,3.5,3.5,4.001E-002,24.991,0.300,0.700,AutoCalculate,NECB-ACTIVITY,No,3.8200E-008,1,3
 People Internal Gains Nominal, DU_BT=SPACE FUNCTION_ST=DWELLING UNITS GENERAL_FL=BUILDING STORY 5_SCHG 6 SPACE FUNCTION DWELLING UNITS GENERAL PEOPLE,NECB-G-OCCUPANCY,DU_BT=SPACE FUNCTION_ST=DWELLING UNITS GENERAL_FL=BUILDING STORY 5_SCHG 6,88.25,3.5,3.5,4.001E-002,24.991,0.300,0.700,AutoCalculate,NECB-ACTIVITY,No,3.8200E-008,1,3
 People Internal Gains Nominal, DU_BT=SPACE FUNCTION_ST=DWELLING UNITS GENERAL_FL=BUILDING STORY 5_SCHG 7 SPACE FUNCTION DWELLING UNITS GENERAL PEOPLE,NECB-G-OCCUPANCY,DU_BT=SPACE FUNCTION_ST=DWELLING UNITS GENERAL_FL=BUILDING STORY 5_SCHG 7,88.25,3.5,3.5,4.001E-002,24.991,0.300,0.700,AutoCalculate,NECB-ACTIVITY,No,3.8200E-008,1,3
 People Internal Gains Nominal, DU_BT=SPACE FUNCTION_ST=DWELLING UNITS GENERAL_FL=BUILDING STORY 6_SCHG SPACE FUNCTION DWELLING UNITS GENERAL PEOPLE,NECB-G-OCCUPANCY,DU_BT=SPACE FUNCTION_ST=DWELLING UNITS GENERAL_FL=BUILDING STORY 6_SCHG,88.25,3.5,3.5,4.001E-002,24.991,0.300,0.700,AutoCalculate,NECB-ACTIVITY,No,3.8200E-008,1,3
 People Internal Gains Nominal, DU_BT=SPACE FUNCTION_ST=DWELLING UNITS GENERAL_FL=BUILDING STORY 6_SCHG 1 SPACE FUNCTION DWELLING UNITS GENERAL PEOPLE,NECB-G-OCCUPANCY,DU_BT=SPACE FUNCTION_ST=DWELLING UNITS GENERAL_FL=BUILDING STORY 6_SCHG 1,88.25,3.5,3.5,4.001E-002,24.991,0.300,0.700,AutoCalculate,NECB-ACTIVITY,No,3.8200E-008,1,3
 People Internal Gains Nominal, DU_BT=SPACE FUNCTION_ST=DWELLING UNITS GENERAL_FL=BUILDING STORY 6_SCHG 2 SPACE FUNCTION DWELLING UNITS GENERAL PEOPLE,NECB-G-OCCUPANCY,DU_BT=SPACE FUNCTION_ST=DWELLING UNITS GENERAL_FL=BUILDING STORY 6_SCHG 2,88.25,3.5,3.5,4.001E-002,24.991,0.300,0.700,AutoCalculate,NECB-ACTIVITY,No,3.8200E-008,1,3
 People Internal Gains Nominal, DU_BT=SPACE FUNCTION_ST=DWELLING UNITS GENERAL_FL=BUILDING STORY 6_SCHG 3 SPACE FUNCTION DWELLING UNITS GENERAL PEOPLE,NECB-G-OCCUPANCY,DU_BT=SPACE FUNCTION_ST=DWELLING UNITS GENERAL_FL=BUILDING STORY 6_SCHG 3,88.25,3.5,3.5,4.001E-002,24.991,0.300,0.700,AutoCalculate,NECB-ACTIVITY,No,3.8200E-008,1,3
 People Internal Gains Nominal, DU_BT=SPACE FUNCTION_ST=DWELLING UNITS GENERAL_FL=BUILDING STORY 6_SCHG 4 SPACE FUNCTION DWELLING UNITS GENERAL PEOPLE,NECB-G-OCCUPANCY,DU_BT=SPACE FUNCTION_ST=DWELLING UNITS GENERAL_FL=BUILDING STORY 6_SCHG 4,88.25,3.5,3.5,4.001E-002,24.991,0.300,0.700,AutoCalculate,NECB-ACTIVITY,No,3.8200E-008,1,3
 People Internal Gains Nominal, DU_BT=SPACE FUNCTION_ST=DWELLING UNITS GENERAL_FL=BUILDING STORY 6_SCHG 5 SPACE FUNCTION DWELLING UNITS GENERAL PEOPLE,NECB-G-OCCUPANCY,DU_BT=SPACE FUNCTION_ST=DWELLING UNITS GENERAL_FL=BUILDING STORY 6_SCHG 5,88.25,3.5,3.5,4.001E-002,24.991,0.300,0.700,AutoCalculate,NECB-ACTIVITY,No,3.8200E-008,1,3
 People Internal Gains Nominal, DU_BT=SPACE FUNCTION_ST=DWELLING UNITS GENERAL_FL=BUILDING STORY 6_SCHG 6 SPACE FUNCTION DWELLING UNITS GENERAL PEOPLE,NECB-G-OCCUPANCY,DU_BT=SPACE FUNCTION_ST=DWELLING UNITS GENERAL_FL=BUILDING STORY 6_SCHG 6,88.25,3.5,3.5,4.001E-002,24.991,0.300,0.700,AutoCalculate,NECB-ACTIVITY,No,3.8200E-008,1,3
 People Internal Gains Nominal, DU_BT=SPACE FUNCTION_ST=DWELLING UNITS GENERAL_FL=BUILDING STORY 6_SCHG 7 SPACE FUNCTION DWELLING UNITS GENERAL PEOPLE,NECB-G-OCCUPANCY,DU_BT=SPACE FUNCTION_ST=DWELLING UNITS GENERAL_FL=BUILDING STORY 6_SCHG 7,88.25,3.5,3.5,4.001E-002,24.991,0.300,0.700,AutoCalculate,NECB-ACTIVITY,No,3.8200E-008,1,3
 People Internal Gains Nominal, DU_BT=SPACE FUNCTION_ST=DWELLING UNITS GENERAL_FL=BUILDING STORY 7_SCHG SPACE FUNCTION DWELLING UNITS GENERAL PEOPLE,NECB-G-OCCUPANCY,DU_BT=SPACE FUNCTION_ST=DWELLING UNITS GENERAL_FL=BUILDING STORY 7_SCHG,88.25,3.5,3.5,4.001E-002,24.991,0.300,0.700,AutoCalculate,NECB-ACTIVITY,No,3.8200E-008,1,3
 People Internal Gains Nominal, DU_BT=SPACE FUNCTION_ST=DWELLING UNITS GENERAL_FL=BUILDING STORY 7_SCHG 1 SPACE FUNCTION DWELLING UNITS GENERAL PEOPLE,NECB-G-OCCUPANCY,DU_BT=SPACE FUNCTION_ST=DWELLING UNITS GENERAL_FL=BUILDING STORY 7_SCHG 1,88.25,3.5,3.5,4.001E-002,24.991,0.300,0.700,AutoCalculate,NECB-ACTIVITY,No,3.8200E-008,1,3
 People Internal Gains Nominal, DU_BT=SPACE FUNCTION_ST=DWELLING UNITS GENERAL_FL=BUILDING STORY 7_SCHG 2 SPACE FUNCTION DWELLING UNITS GENERAL PEOPLE,NECB-G-OCCUPANCY,DU_BT=SPACE FUNCTION_ST=DWELLING UNITS GENERAL_FL=BUILDING STORY 7_SCHG 2,88.25,3.5,3.5,4.001E-002,24.991,0.300,0.700,AutoCalculate,NECB-ACTIVITY,No,3.8200E-008,1,3
 People Internal Gains Nominal, DU_BT=SPACE FUNCTION_ST=DWELLING UNITS GENERAL_FL=BUILDING STORY 7_SCHG 3 SPACE FUNCTION DWELLING UNITS GENERAL PEOPLE,NECB-G-OCCUPANCY,DU_BT=SPACE FUNCTION_ST=DWELLING UNITS GENERAL_FL=BUILDING STORY 7_SCHG 3,88.25,3.5,3.5,4.001E-002,24.991,0.300,0.700,AutoCalculate,NECB-ACTIVITY,No,3.8200E-008,1,3
 People Internal Gains Nominal, DU_BT=SPACE FUNCTION_ST=DWELLING UNITS GENERAL_FL=BUILDING STORY 7_SCHG 4 SPACE FUNCTION DWELLING UNITS GENERAL PEOPLE,NECB-G-OCCUPANCY,DU_BT=SPACE FUNCTION_ST=DWELLING UNITS GENERAL_FL=BUILDING STORY 7_SCHG 4,88.25,3.5,3.5,4.001E-002,24.991,0.300,0.700,AutoCalculate,NECB-ACTIVITY,No,3.8200E-008,1,3
 People Internal Gains Nominal, DU_BT=SPACE FUNCTION_ST=DWELLING UNITS GENERAL_FL=BUILDING STORY 7_SCHG 5 SPACE FUNCTION DWELLING UNITS GENERAL PEOPLE,NECB-G-OCCUPANCY,DU_BT=SPACE FUNCTION_ST=DWELLING UNITS GENERAL_FL=BUILDING STORY 7_SCHG 5,88.25,3.5,3.5,4.001E-002,24.991,0.300,0.700,AutoCalculate,NECB-ACTIVITY,No,3.8200E-008,1,3
 People Internal Gains Nominal, DU_BT=SPACE FUNCTION_ST=DWELLING UNITS GENERAL_FL=BUILDING STORY 7_SCHG 6 SPACE FUNCTION DWELLING UNITS GENERAL PEOPLE,NECB-G-OCCUPANCY,DU_BT=SPACE FUNCTION_ST=DWELLING UNITS GENERAL_FL=BUILDING STORY 7_SCHG 6,88.25,3.5,3.5,4.001E-002,24.991,0.300,0.700,AutoCalculate,NECB-ACTIVITY,No,3.8200E-008,1,3
 People Internal Gains Nominal, DU_BT=SPACE FUNCTION_ST=DWELLING UNITS GENERAL_FL=BUILDING STORY 7_SCHG 7 SPACE FUNCTION DWELLING UNITS GENERAL PEOPLE,NECB-G-OCCUPANCY,DU_BT=SPACE FUNCTION_ST=DWELLING UNITS GENERAL_FL=BUILDING STORY 7_SCHG 7,88.25,3.5,3.5,4.001E-002,24.991,0.300,0.700,AutoCalculate,NECB-ACTIVITY,No,3.8200E-008,1,3
 People Internal Gains Nominal, DU_BT=SPACE FUNCTION_ST=DWELLING UNITS GENERAL_FL=BUILDING STORY 8_SCHG SPACE FUNCTION DWELLING UNITS GENERAL PEOPLE,NECB-G-OCCUPANCY,DU_BT=SPACE FUNCTION_ST=DWELLING UNITS GENERAL_FL=BUILDING STORY 8_SCHG,88.25,3.5,3.5,4.001E-002,24.991,0.300,0.700,AutoCalculate,NECB-ACTIVITY,No,3.8200E-008,1,3
 People Internal Gains Nominal, DU_BT=SPACE FUNCTION_ST=DWELLING UNITS GENERAL_FL=BUILDING STORY 8_SCHG 1 SPACE FUNCTION DWELLING UNITS GENERAL PEOPLE,NECB-G-OCCUPANCY,DU_BT=SPACE FUNCTION_ST=DWELLING UNITS GENERAL_FL=BUILDING STORY 8_SCHG 1,88.25,3.5,3.5,4.001E-002,24.991,0.300,0.700,AutoCalculate,NECB-ACTIVITY,No,3.8200E-008,1,3
 People Internal Gains Nominal, DU_BT=SPACE FUNCTION_ST=DWELLING UNITS GENERAL_FL=BUILDING STORY 8_SCHG 2 SPACE FUNCTION DWELLING UNITS GENERAL PEOPLE,NECB-G-OCCUPANCY,DU_BT=SPACE FUNCTION_ST=DWELLING UNITS GENERAL_FL=BUILDING STORY 8_SCHG 2,88.25,3.5,3.5,4.001E-002,24.991,0.300,0.700,AutoCalculate,NECB-ACTIVITY,No,3.8200E-008,1,3
 People Internal Gains Nominal, DU_BT=SPACE FUNCTION_ST=DWELLING UNITS GENERAL_FL=BUILDING STORY 8_SCHG 3 SPACE FUNCTION DWELLING UNITS GENERAL PEOPLE,NECB-G-OCCUPANCY,DU_BT=SPACE FUNCTION_ST=DWELLING UNITS GENERAL_FL=BUILDING STORY 8_SCHG 3,88.25,3.5,3.5,4.001E-002,24.991,0.300,0.700,AutoCalculate,NECB-ACTIVITY,No,3.8200E-008,1,3
 People Internal Gains Nominal, DU_BT=SPACE FUNCTION_ST=DWELLING UNITS GENERAL_FL=BUILDING STORY 8_SCHG 4 SPACE FUNCTION DWELLING UNITS GENERAL PEOPLE,NECB-G-OCCUPANCY,DU_BT=SPACE FUNCTION_ST=DWELLING UNITS GENERAL_FL=BUILDING STORY 8_SCHG 4,88.25,3.5,3.5,4.001E-002,24.991,0.300,0.700,AutoCalculate,NECB-ACTIVITY,No,3.8200E-008,1,3
 People Internal Gains Nominal, DU_BT=SPACE FUNCTION_ST=DWELLING UNITS GENERAL_FL=BUILDING STORY 8_SCHG 5 SPACE FUNCTION DWELLING UNITS GENERAL PEOPLE,NECB-G-OCCUPANCY,DU_BT=SPACE FUNCTION_ST=DWELLING UNITS GENERAL_FL=BUILDING STORY 8_SCHG 5,88.25,3.5,3.5,4.001E-002,24.991,0.300,0.700,AutoCalculate,NECB-ACTIVITY,No,3.8200E-008,1,3
 People Internal Gains Nominal, DU_BT=SPACE FUNCTION_ST=DWELLING UNITS GENERAL_FL=BUILDING STORY 8_SCHG 6 SPACE FUNCTION DWELLING UNITS GENERAL PEOPLE,NECB-G-OCCUPANCY,DU_BT=SPACE FUNCTION_ST=DWELLING UNITS GENERAL_FL=BUILDING STORY 8_SCHG 6,88.25,3.5,3.5,4.001E-002,24.991,0.300,0.700,AutoCalculate,NECB-ACTIVITY,No,3.8200E-008,1,3
 People Internal Gains Nominal, DU_BT=SPACE FUNCTION_ST=DWELLING UNITS GENERAL_FL=BUILDING STORY 8_SCHG 7 SPACE FUNCTION DWELLING UNITS GENERAL PEOPLE,NECB-G-OCCUPANCY,DU_BT=SPACE FUNCTION_ST=DWELLING UNITS GENERAL_FL=BUILDING STORY 8_SCHG 7,88.25,3.5,3.5,4.001E-002,24.991,0.300,0.700,AutoCalculate,NECB-ACTIVITY,No,3.8200E-008,1,3
 People Internal Gains Nominal, DU_BT=SPACE FUNCTION_ST=DWELLING UNITS GENERAL_FL=BUILDING STORY 9_SCHG SPACE FUNCTION DWELLING UNITS GENERAL PEOPLE,NECB-G-OCCUPANCY,DU_BT=SPACE FUNCTION_ST=DWELLING UNITS GENERAL_FL=BUILDING STORY 9_SCHG,88.25,3.5,3.5,4.001E-002,24.991,0.300,0.700,AutoCalculate,NECB-ACTIVITY,No,3.8200E-008,1,3
 People Internal Gains Nominal, DU_BT=SPACE FUNCTION_ST=DWELLING UNITS GENERAL_FL=BUILDING STORY 9_SCHG 1 SPACE FUNCTION DWELLING UNITS GENERAL PEOPLE,NECB-G-OCCUPANCY,DU_BT=SPACE FUNCTION_ST=DWELLING UNITS GENERAL_FL=BUILDING STORY 9_SCHG 1,88.25,3.5,3.5,4.001E-002,24.991,0.300,0.700,AutoCalculate,NECB-ACTIVITY,No,3.8200E-008,1,3
 People Internal Gains Nominal, DU_BT=SPACE FUNCTION_ST=DWELLING UNITS GENERAL_FL=BUILDING STORY 9_SCHG 2 SPACE FUNCTION DWELLING UNITS GENERAL PEOPLE,NECB-G-OCCUPANCY,DU_BT=SPACE FUNCTION_ST=DWELLING UNITS GENERAL_FL=BUILDING STORY 9_SCHG 2,88.25,3.5,3.5,4.001E-002,24.991,0.300,0.700,AutoCalculate,NECB-ACTIVITY,No,3.8200E-008,1,3
 People Internal Gains Nominal, DU_BT=SPACE FUNCTION_ST=DWELLING UNITS GENERAL_FL=BUILDING STORY 9_SCHG 3 SPACE FUNCTION DWELLING UNITS GENERAL PEOPLE,NECB-G-OCCUPANCY,DU_BT=SPACE FUNCTION_ST=DWELLING UNITS GENERAL_FL=BUILDING STORY 9_SCHG 3,88.25,3.5,3.5,4.001E-002,24.991,0.300,0.700,AutoCalculate,NECB-ACTIVITY,No,3.8200E-008,1,3
 People Internal Gains Nominal, DU_BT=SPACE FUNCTION_ST=DWELLING UNITS GENERAL_FL=BUILDING STORY 9_SCHG 4 SPACE FUNCTION DWELLING UNITS GENERAL PEOPLE,NECB-G-OCCUPANCY,DU_BT=SPACE FUNCTION_ST=DWELLING UNITS GENERAL_FL=BUILDING STORY 9_SCHG 4,88.25,3.5,3.5,4.001E-002,24.991,0.300,0.700,AutoCalculate,NECB-ACTIVITY,No,3.8200E-008,1,3
 People Internal Gains Nominal, DU_BT=SPACE FUNCTION_ST=DWELLING UNITS GENERAL_FL=BUILDING STORY 9_SCHG 5 SPACE FUNCTION DWELLING UNITS GENERAL PEOPLE,NECB-G-OCCUPANCY,DU_BT=SPACE FUNCTION_ST=DWELLING UNITS GENERAL_FL=BUILDING STORY 9_SCHG 5,88.25,3.5,3.5,4.001E-002,24.991,0.300,0.700,AutoCalculate,NECB-ACTIVITY,No,3.8200E-008,1,3
 People Internal Gains Nominal, DU_BT=SPACE FUNCTION_ST=DWELLING UNITS GENERAL_FL=BUILDING STORY 9_SCHG 6 SPACE FUNCTION DWELLING UNITS GENERAL PEOPLE,NECB-G-OCCUPANCY,DU_BT=SPACE FUNCTION_ST=DWELLING UNITS GENERAL_FL=BUILDING STORY 9_SCHG 6,88.25,3.5,3.5,4.001E-002,24.991,0.300,0.700,AutoCalculate,NECB-ACTIVITY,No,3.8200E-008,1,3
 People Internal Gains Nominal, DU_BT=SPACE FUNCTION_ST=DWELLING UNITS GENERAL_FL=BUILDING STORY 9_SCHG 7 SPACE FUNCTION DWELLING UNITS GENERAL PEOPLE,NECB-G-OCCUPANCY,DU_BT=SPACE FUNCTION_ST=DWELLING UNITS GENERAL_FL=BUILDING STORY 9_SCHG 7,88.25,3.5,3.5,4.001E-002,24.991,0.300,0.700,AutoCalculate,NECB-ACTIVITY,No,3.8200E-008,1,3
 People Internal Gains Nominal, ALL_ST=OFFICE ENCLOSED <= 25 M2_FL=BUILDING STORY 1_SCH=A SPACE FUNCTION OFFICE ENCLOSED <= 25 M2 PEOPLE,NECB-A-OCCUPANCY,ALL_ST=OFFICE ENCLOSED <= 25 M2_FL=BUILDING STORY 1_SCH=A,88.25,4.4,4.4,5.002E-002,19.993,0.300,0.700,AutoCalculate,NECB-ACTIVITY,No,3.8200E-008,0,4
! <Lights Internal Gains Nominal>,Name,Schedule Name,Zone Name,Zone Floor Area {m2},# Zone Occupants,Lighting Level {W},Lights/Floor Area {W/m2},Lights per person {W/person},Fraction Return Air,Fraction Radiant,Fraction Short Wave,Fraction Convected,Fraction Replaceable,End-Use Category,Nominal Minimum Lighting Level {W},Nominal Maximum Lighting Level {W}
 Lights Internal Gains Nominal, WILD_ST=CORRIDOR/TRANSITION AREA OTHER-SCH-G_FL=BUILDING STORY 10_SCH=G SPACE FUNCTION CORRIDOR/TRANSITION AREA OTHER-SCH-G LIGHTS 85.0 PERCENT REDUCTION,NECB-G-LIGHTING,WILD_ST=CORRIDOR/TRANSITION AREA OTHER-SCH-G_FL=BUILDING STORY 10_SCH=G,77.66,0.8,205.018,2.640,263.904,0.000,0.500,0.200,0.300,1.000,General,0.000,184.516
 Lights Internal Gains Nominal, WILD_ST=CORRIDOR/TRANSITION AREA OTHER-SCH-G_FL=BUILDING STORY 1_SCH=G SPACE FUNCTION CORRIDOR/TRANSITION AREA OTHER-SCH-G LIGHTS 85.0 PERCENT REDUCTION,NECB-G-LIGHTING,WILD_ST=CORRIDOR/TRANSITION AREA OTHER-SCH-G_FL=BUILDING STORY 1_SCH=G,77.66,0.8,205.018,2.640,263.904,0.000,0.500,0.200,0.300,1.000,General,0.000,184.516
 Lights Internal Gains Nominal, WILD_ST=CORRIDOR/TRANSITION AREA OTHER-SCH-G_FL=BUILDING STORY 2_SCH=G SPACE FUNCTION CORRIDOR/TRANSITION AREA OTHER-SCH-G LIGHTS 85.0 PERCENT REDUCTION,NECB-G-LIGHTING,WILD_ST=CORRIDOR/TRANSITION AREA OTHER-SCH-G_FL=BUILDING STORY 2_SCH=G,77.66,0.8,205.018,2.640,263.904,0.000,0.500,0.200,0.300,1.000,General,0.000,184.516
 Lights Internal Gains Nominal, WILD_ST=CORRIDOR/TRANSITION AREA OTHER-SCH-G_FL=BUILDING STORY 3_SCH=G SPACE FUNCTION CORRIDOR/TRANSITION AREA OTHER-SCH-G LIGHTS 85.0 PERCENT REDUCTION,NECB-G-LIGHTING,WILD_ST=CORRIDOR/TRANSITION AREA OTHER-SCH-G_FL=BUILDING STORY 3_SCH=G,77.66,0.8,205.018,2.640,263.904,0.000,0.500,0.200,0.300,1.000,General,0.000,184.516
 Lights Internal Gains Nominal, WILD_ST=CORRIDOR/TRANSITION AREA OTHER-SCH-G_FL=BUILDING STORY 4_SCH=G SPACE FUNCTION CORRIDOR/TRANSITION AREA OTHER-SCH-G LIGHTS 85.0 PERCENT REDUCTION,NECB-G-LIGHTING,WILD_ST=CORRIDOR/TRANSITION AREA OTHER-SCH-G_FL=BUILDING STORY 4_SCH=G,77.66,0.8,205.018,2.640,263.904,0.000,0.500,0.200,0.300,1.000,General,0.000,184.516
 Lights Internal Gains Nominal, WILD_ST=CORRIDOR/TRANSITION AREA OTHER-SCH-G_FL=BUILDING STORY 5_SCH=G SPACE FUNCTION CORRIDOR/TRANSITION AREA OTHER-SCH-G LIGHTS 85.0 PERCENT REDUCTION,NECB-G-LIGHTING,WILD_ST=CORRIDOR/TRANSITION AREA OTHER-SCH-G_FL=BUILDING STORY 5_SCH=G,77.66,0.8,205.018,2.640,263.904,0.000,0.500,0.200,0.300,1.000,General,0.000,184.516
 Lights Internal Gains Nominal, WILD_ST=CORRIDOR/TRANSITION AREA OTHER-SCH-G_FL=BUILDING STORY 6_SCH=G SPACE FUNCTION CORRIDOR/TRANSITION AREA OTHER-SCH-G LIGHTS 85.0 PERCENT REDUCTION,NECB-G-LIGHTING,WILD_ST=CORRIDOR/TRANSITION AREA OTHER-SCH-G_FL=BUILDING STORY 6_SCH=G,77.66,0.8,205.018,2.640,263.904,0.000,0.500,0.200,0.300,1.000,General,0.000,184.516
 Lights Internal Gains Nominal, WILD_ST=CORRIDOR/TRANSITION AREA OTHER-SCH-G_FL=BUILDING STORY 7_SCH=G SPACE FUNCTION CORRIDOR/TRANSITION AREA OTHER-SCH-G LIGHTS 85.0 PERCENT REDUCTION,NECB-G-LIGHTING,WILD_ST=CORRIDOR/TRANSITION AREA OTHER-SCH-G_FL=BUILDING STORY 7_SCH=G,77.66,0.8,205.018,2.640,263.904,0.000,0.500,0.200,0.300,1.000,General,0.000,184.516
 Lights Internal Gains Nominal, WILD_ST=CORRIDOR/TRANSITION AREA OTHER-SCH-G_FL=BUILDING STORY 8_SCH=G SPACE FUNCTION CORRIDOR/TRANSITION AREA OTHER-SCH-G LIGHTS 85.0 PERCENT REDUCTION,NECB-G-LIGHTING,WILD_ST=CORRIDOR/TRANSITION AREA OTHER-SCH-G_FL=BUILDING STORY 8_SCH=G,77.66,0.8,205.018,2.640,263.904,0.000,0.500,0.200,0.300,1.000,General,0.000,184.516
 Lights Internal Gains Nominal, WILD_ST=CORRIDOR/TRANSITION AREA OTHER-SCH-G_FL=BUILDING STORY 9_SCH=G SPACE FUNCTION CORRIDOR/TRANSITION AREA OTHER-SCH-G LIGHTS 85.0 PERCENT REDUCTION,NECB-G-LIGHTING,WILD_ST=CORRIDOR/TRANSITION AREA OTHER-SCH-G_FL=BUILDING STORY 9_SCH=G,77.66,0.8,205.018,2.640,263.904,0.000,0.500,0.200,0.300,1.000,General,0.000,184.516
 Lights Internal Gains Nominal, DU_BT=SPACE FUNCTION_ST=DWELLING UNITS GENERAL_FL=BUILDING STORY 10_SCHG SPACE FUNCTION DWELLING UNITS GENERAL LIGHTS 85.0 PERCENT REDUCTION,NECB-G-LIGHTING,DU_BT=SPACE FUNCTION_ST=DWELLING UNITS GENERAL_FL=BUILDING STORY 10_SCHG,88.25,3.5,264.746,3.000,74.973,0.000,0.500,0.200,0.300,1.000,General,0.000,238.271
 Lights Internal Gains Nominal, DU_BT=SPACE FUNCTION_ST=DWELLING UNITS GENERAL_FL=BUILDING STORY 10_SCHG 1 SPACE FUNCTION DWELLING UNITS GENERAL LIGHTS 85.0 PERCENT REDUCTION,NECB-G-LIGHTING,DU_BT=SPACE FUNCTION_ST=DWELLING UNITS GENERAL_FL=BUILDING STORY 10_SCHG 1,88.25,3.5,264.746,3.000,74.973,0.000,0.500,0.200,0.300,1.000,General,0.000,238.271
 Lights Internal Gains Nominal, DU_BT=SPACE FUNCTION_ST=DWELLING UNITS GENERAL_FL=BUILDING STORY 10_SCHG 2 SPACE FUNCTION DWELLING UNITS GENERAL LIGHTS 85.0 PERCENT REDUCTION,NECB-G-LIGHTING,DU_BT=SPACE FUNCTION_ST=DWELLING UNITS GENERAL_FL=BUILDING STORY 10_SCHG 2,88.25,3.5,264.746,3.000,74.973,0.000,0.500,0.200,0.300,1.000,General,0.000,238.271
 Lights Internal Gains Nominal, DU_BT=SPACE FUNCTION_ST=DWELLING UNITS GENERAL_FL=BUILDING STORY 10_SCHG 3 SPACE FUNCTION DWELLING UNITS GENERAL LIGHTS 85.0 PERCENT REDUCTION,NECB-G-LIGHTING,DU_BT=SPACE FUNCTION_ST=DWELLING UNITS GENERAL_FL=BUILDING STORY 10_SCHG 3,88.25,3.5,264.746,3.000,74.973,0.000,0.500,0.200,0.300,1.000,General,0.000,238.271
 Lights Internal Gains Nominal, DU_BT=SPACE FUNCTION_ST=DWELLING UNITS GENERAL_FL=BUILDING STORY 10_SCHG 4 SPACE FUNCTION DWELLING UNITS GENERAL LIGHTS 85.0 PERCENT REDUCTION,NECB-G-LIGHTING,DU_BT=SPACE FUNCTION_ST=DWELLING UNITS GENERAL_FL=BUILDING STORY 10_SCHG 4,88.25,3.5,264.746,3.000,74.973,0.000,0.500,0.200,0.300,1.000,General,0.000,238.271
[...]
 Component Sizing Information, Pump:ConstantSpeed, SERVICE WATER LOOP PUMP, Design Power Consumption [W], 646.50476
 Component Sizing Information, WaterHeater:Mixed, 704GAL ELECTRICITY WATER HEATER - 475KBTU/HR 1.0 THERM EFF, Use Side Design Flow Rate [m3/s], 7.42670E-004
! <Environment>,Environment Name,Environment Type, Start Date, End Date, Start DayOfWeek, Duration {#days}, Source:Start DayOfWeek,  Use Daylight Saving, Use Holidays, Apply Weekend Holiday Rule,  Use Rain Values, Use Snow Values
! <Environment:Special Days>, Special Day Name, Special Day Type, Source, Start Date, Duration {#days}
! <Environment:Daylight Saving>, Daylight Saving Indicator, Source, Start Date, End Date
! <Environment:WarmupDays>, NumberofWarmupDays
Environment,RUN PERIOD 1,WeatherFileRunPeriod,01/01,12/31,Sunday,365,Use RunPeriod Specified Day,No,No,No,Yes,Yes
Environment:Daylight Saving,No,RunPeriod Object
Environment:WarmupDays,  6
! <Tabular Report>,Style,Unit Conversion
Tabular Report,HTML,None
! <Warmup Convergence Information>,Zone Name,Environment Type/Name,Average Warmup Temperature Difference {deltaC},Std Dev Warmup Temperature Difference {deltaC},Max Temperature Pass/Fail Convergence,Min Temperature Pass/Fail Convergence,Average Warmup Load Difference {W},Std Dev Warmup Load Difference {W},Heating Load Pass/Fail Convergence,Cooling Load Pass/Fail Convergence
 Warmup Convergence Information,ALL_ST=OFFICE ENCLOSED <= 25 M2_FL=BUILDING STORY 1_SCH=A,RunPeriod: RUN PERIOD 1,0.3406502585,0.3698085379,Pass,Pass,7.2496014488E-002,8.1841989908E-002,Pass,Pass
 Warmup Convergence Information,DU_BT=SPACE FUNCTION_ST=DWELLING UNITS GENERAL_FL=BUILDING STORY 10_SCHG,RunPeriod: RUN PERIOD 1,0.4965020459,0.6794773500,Pass,Pass,2.4717814871,9.5649605323,Pass,Pass
 Warmup Convergence Information,DU_BT=SPACE FUNCTION_ST=DWELLING UNITS GENERAL_FL=BUILDING STORY 10_SCHG 1,RunPeriod: RUN PERIOD 1,0.3334244531,0.7413267349,Pass,Pass,0.9481087199,1.2061639130,Pass,Pass
 Warmup Convergence Information,DU_BT=SPACE FUNCTION_ST=DWELLING UNITS GENERAL_FL=BUILDING STORY 10_SCHG 2,RunPeriod: RUN PERIOD 1,0.3335152981,0.7285722435,Pass,Pass,0.8541371834,1.0147062030,Pass,Pass
 Warmup Convergence Information,DU_BT=SPACE FUNCTION_ST=DWELLING UNITS GENERAL_FL=BUILDING STORY 10_SCHG 3,RunPeriod: RUN PERIOD 1,0.4955402544,0.6809586028,Pass,Pass,1.1604861988,3.2878536514,Pass,Pass
 Warmup Convergence Information,DU_BT=SPACE FUNCTION_ST=DWELLING UNITS GENERAL_FL=BUILDING STORY 10_SCHG 4,RunPeriod: RUN PERIOD 1,0.3334506986,0.7386077945,Pass,Pass,2.3765154535,6.9453345658,Pass,Pass
 Warmup Convergence Information,DU_BT=SPACE FUNCTION_ST=DWELLING UNITS GENERAL_FL=BUILDING STORY 10_SCHG 5,RunPeriod: RUN PERIOD 1,0.4994516178,0.6364144444,Pass,Pass,0.5036791236,0.7432083273,Pass,Pass
 Warmup Convergence Information,DU_BT=SPACE FUNCTION_ST=DWELLING UNITS GENERAL_FL=BUILDING STORY 10_SCHG 6,RunPeriod: RUN PERIOD 1,0.3335088028,0.7284916764,Pass,Pass,0.8839264241,1.0523300645,Pass,Pass
 Warmup Convergence Information,DU_BT=SPACE FUNCTION_ST=DWELLING UNITS GENERAL_FL=BUILDING STORY 10_SCHG 7,RunPeriod: RUN PERIOD 1,0.4896886085,0.7133365423,Pass,Pass,0.8036581683,1.0637296858,Pass,Pass
 Warmup Convergence Information,DU_BT=SPACE FUNCTION_ST=DWELLING UNITS GENERAL_FL=BUILDING STORY 1_SCHG,RunPeriod: RUN PERIOD 1,0.3333682413,0.6671466511,Pass,Pass,0.6300356428,0.9226633515,Pass,Pass
 Warmup Convergence Information,DU_BT=SPACE FUNCTION_ST=DWELLING UNITS GENERAL_FL=BUILDING STORY 1_SCHG 1,RunPeriod: RUN PERIOD 1,0.4004940539,0.5669875850,Pass,Pass,0.3594669673,0.7058024424,Pass,Pass
 Warmup Convergence Information,DU_BT=SPACE FUNCTION_ST=DWELLING UNITS GENERAL_FL=BUILDING STORY 1_SCHG 2,RunPeriod: RUN PERIOD 1,0.3332209162,0.5698113583,Pass,Pass,0.6621213685,1.3028660400,Pass,Pass
 Warmup Convergence Information,DU_BT=SPACE FUNCTION_ST=DWELLING UNITS GENERAL_FL=BUILDING STORY 1_SCHG 3,RunPeriod: RUN PERIOD 1,0.3681732316,0.4465650450,Pass,Pass,10.1301507351,44.5748522380,Pass,Pass
 Warmup Convergence Information,DU_BT=SPACE FUNCTION_ST=DWELLING UNITS GENERAL_FL=BUILDING STORY 1_SCHG 4,RunPeriod: RUN PERIOD 1,0.3331885299,0.6615904138,Pass,Pass,46.9198853858,220.2683197071,Pass,Pass
 Warmup Convergence Information,DU_BT=SPACE FUNCTION_ST=DWELLING UNITS GENERAL_FL=BUILDING STORY 1_SCHG 5,RunPeriod: RUN PERIOD 1,0.3333722182,0.5665308174,Pass,Pass,0.7725365552,1.6733521100,Pass,Pass
 Warmup Convergence Information,DU_BT=SPACE FUNCTION_ST=DWELLING UNITS GENERAL_FL=BUILDING STORY 1_SCHG 6,RunPeriod: RUN PERIOD 1,0.3696315788,0.4975160681,Pass,Pass,1.7407411320,5.7831122050,Pass,Pass
 Warmup Convergence Information,DU_BT=SPACE FUNCTION_ST=DWELLING UNITS GENERAL_FL=BUILDING STORY 2_SCHG,RunPeriod: RUN PERIOD 1,0.3013933528,0.5422624087,Pass,Pass,0.7270967874,1.6206391013,Pass,Pass
 Warmup Convergence Information,DU_BT=SPACE FUNCTION_ST=DWELLING UNITS GENERAL_FL=BUILDING STORY 2_SCHG 1,RunPeriod: RUN PERIOD 1,0.2856340387,0.3679948055,Pass,Pass,3.1943725471,12.6672849766,Pass,Pass
 Warmup Convergence Information,DU_BT=SPACE FUNCTION_ST=DWELLING UNITS GENERAL_FL=BUILDING STORY 2_SCHG 2,RunPeriod: RUN PERIOD 1,0.3143710738,0.6312308934,Pass,Pass,0.8393470337,1.1183422202,Pass,Pass
 Warmup Convergence Information,DU_BT=SPACE FUNCTION_ST=DWELLING UNITS GENERAL_FL=BUILDING STORY 2_SCHG 3,RunPeriod: RUN PERIOD 1,0.2828081444,0.3662186459,Pass,Pass,1.1015561806,3.4463049980,Pass,Pass
 Warmup Convergence Information,DU_BT=SPACE FUNCTION_ST=DWELLING UNITS GENERAL_FL=BUILDING STORY 2_SCHG 4,RunPeriod: RUN PERIOD 1,0.3226450751,0.6453879411,Pass,Pass,0.9375062271,1.7953957049,Pass,Pass
 Warmup Convergence Information,DU_BT=SPACE FUNCTION_ST=DWELLING UNITS GENERAL_FL=BUILDING STORY 2_SCHG 5,RunPeriod: RUN PERIOD 1,0.3001428551,0.5453196436,Pass,Pass,0.7928781122,1.5552828378,Pass,Pass
 Warmup Convergence Information,DU_BT=SPACE FUNCTION_ST=DWELLING UNITS GENERAL_FL=BUILDING STORY 2_SCHG 6,RunPeriod: RUN PERIOD 1,0.3103422257,0.4567081610,Pass,Pass,1.7644765997,7.3643675401,Pass,Pass
 Warmup Convergence Information,DU_BT=SPACE FUNCTION_ST=DWELLING UNITS GENERAL_FL=BUILDING STORY 2_SCHG 7,RunPeriod: RUN PERIOD 1,0.3168797284,0.5849948975,Pass,Pass,0.3074710714,0.4553514824,Pass,Pass
 Warmup Convergence Information,DU_BT=SPACE FUNCTION_ST=DWELLING UNITS GENERAL_FL=BUILDING STORY 3_SCHG,RunPeriod: RUN PERIOD 1,0.3038331185,0.4486680251,Pass,Pass,1.0936818517,4.2647483589,Pass,Pass
 Warmup Convergence Information,DU_BT=SPACE FUNCTION_ST=DWELLING UNITS GENERAL_FL=BUILDING STORY 3_SCHG 1,RunPeriod: RUN PERIOD 1,0.2778206702,0.3643260181,Pass,Pass,1.9873769406,7.6226164248,Pass,Pass
 Warmup Convergence Information,DU_BT=SPACE FUNCTION_ST=DWELLING UNITS GENERAL_FL=BUILDING STORY 3_SCHG 2,RunPeriod: RUN PERIOD 1,0.2774748293,0.3656538477,Pass,Pass,0.7609679790,2.1856645550,Pass,Pass
 Warmup Convergence Information,DU_BT=SPACE FUNCTION_ST=DWELLING UNITS GENERAL_FL=BUILDING STORY 3_SCHG 3,RunPeriod: RUN PERIOD 1,0.3034384418,0.4734076428,Pass,Pass,0.7534538895,2.5271083022,Pass,Pass
 Warmup Convergence Information,DU_BT=SPACE FUNCTION_ST=DWELLING UNITS GENERAL_FL=BUILDING STORY 3_SCHG 4,RunPeriod: RUN PERIOD 1,0.3097045959,0.6272023696,Pass,Pass,9.6258593662,42.8965847617,Pass,Pass
 Warmup Convergence Information,DU_BT=SPACE FUNCTION_ST=DWELLING UNITS GENERAL_FL=BUILDING STORY 3_SCHG 5,RunPeriod: RUN PERIOD 1,0.3181621797,0.6410313678,Pass,Pass,2.5122149734,8.1429798913,Pass,Pass
 Warmup Convergence Information,DU_BT=SPACE FUNCTION_ST=DWELLING UNITS GENERAL_FL=BUILDING STORY 3_SCHG 6,RunPeriod: RUN PERIOD 1,0.2946182465,0.5414263891,Pass,Pass,1.0721470183,2.1197435403,Pass,Pass
 Warmup Convergence Information,DU_BT=SPACE FUNCTION_ST=DWELLING UNITS GENERAL_FL=BUILDING STORY 3_SCHG 7,RunPeriod: RUN PERIOD 1,0.2958834720,0.5394506337,Pass,Pass,1.3180282237,3.4867644636,Pass,Pass
 Warmup Convergence Information,DU_BT=SPACE FUNCTION_ST=DWELLING UNITS GENERAL_FL=BUILDING STORY 4_SCHG,RunPeriod: RUN PERIOD 1,0.2972804997,0.4650923403,Pass,Pass,0.5074011088,1.4642054082,Pass,Pass
 Warmup Convergence Information,DU_BT=SPACE FUNCTION_ST=DWELLING UNITS GENERAL_FL=BUILDING STORY 4_SCHG 1,RunPeriod: RUN PERIOD 1,0.3181035488,0.6422354575,Pass,Pass,2.1175532172,5.9457900978,Pass,Pass
 Warmup Convergence Information,DU_BT=SPACE FUNCTION_ST=DWELLING UNITS GENERAL_FL=BUILDING STORY 4_SCHG 2,RunPeriod: RUN PERIOD 1,0.3042768503,0.4483297271,Pass,Pass,1.1267780227,4.4285557182,Pass,Pass
 Warmup Convergence Information,DU_BT=SPACE FUNCTION_ST=DWELLING UNITS GENERAL_FL=BUILDING STORY 4_SCHG 3,RunPeriod: RUN PERIOD 1,0.2781695291,0.3631697555,Pass,Pass,5.2726778391,23.3623616853,Pass,Pass
 Warmup Convergence Information,DU_BT=SPACE FUNCTION_ST=DWELLING UNITS GENERAL_FL=BUILDING STORY 4_SCHG 4,RunPeriod: RUN PERIOD 1,0.3096216334,0.6285083300,Pass,Pass,2.5567101517,8.9887868387,Pass,Pass
 Warmup Convergence Information,DU_BT=SPACE FUNCTION_ST=DWELLING UNITS GENERAL_FL=BUILDING STORY 4_SCHG 5,RunPeriod: RUN PERIOD 1,0.2939390631,0.5430749295,Pass,Pass,2.4763521502,8.6857749418,Pass,Pass
 Warmup Convergence Information,DU_BT=SPACE FUNCTION_ST=DWELLING UNITS GENERAL_FL=BUILDING STORY 4_SCHG 6,RunPeriod: RUN PERIOD 1,0.2780583731,0.3657565082,Pass,Pass,0.6142814397,1.6729754044,Pass,Pass
 Warmup Convergence Information,DU_BT=SPACE FUNCTION_ST=DWELLING UNITS GENERAL_FL=BUILDING STORY 4_SCHG 7,RunPeriod: RUN PERIOD 1,0.2952031537,0.5411932745,Pass,Pass,2.5574879587,9.1443082604,Pass,Pass
 Warmup Convergence Information,DU_BT=SPACE FUNCTION_ST=DWELLING UNITS GENERAL_FL=BUILDING STORY 5_SCHG,RunPeriod: RUN PERIOD 1,0.2966160179,0.4644036818,Pass,Pass,0.5080495510,1.4773700537,Pass,Pass
 Warmup Convergence Information,DU_BT=SPACE FUNCTION_ST=DWELLING UNITS GENERAL_FL=BUILDING STORY 5_SCHG 1,RunPeriod: RUN PERIOD 1,0.2942278597,0.5453669189,Pass,Pass,60.3102872195,285.9752496308,Pass,Pass
 Warmup Convergence Information,DU_BT=SPACE FUNCTION_ST=DWELLING UNITS GENERAL_FL=BUILDING STORY 5_SCHG 2,RunPeriod: RUN PERIOD 1,0.3188500945,0.6443671343,Pass,Pass,1.0076928768,2.0550112952,Pass,Pass
 Warmup Convergence Information,DU_BT=SPACE FUNCTION_ST=DWELLING UNITS GENERAL_FL=BUILDING STORY 5_SCHG 3,RunPeriod: RUN PERIOD 1,0.2954889660,0.5435507797,Pass,Pass,3.6035880586,14.1491256492,Pass,Pass
 Warmup Convergence Information,DU_BT=SPACE FUNCTION_ST=DWELLING UNITS GENERAL_FL=BUILDING STORY 5_SCHG 4,RunPeriod: RUN PERIOD 1,0.2784230387,0.3646989669,Pass,Pass,0.9994259289,3.1535838891,Pass,Pass
 Warmup Convergence Information,DU_BT=SPACE FUNCTION_ST=DWELLING UNITS GENERAL_FL=BUILDING STORY 5_SCHG 5,RunPeriod: RUN PERIOD 1,0.2782870322,0.3678682655,Pass,Pass,0.5418982264,1.4599072033,Pass,Pass
 Warmup Convergence Information,DU_BT=SPACE FUNCTION_ST=DWELLING UNITS GENERAL_FL=BUILDING STORY 5_SCHG 6,RunPeriod: RUN PERIOD 1,0.3103702662,0.6315766319,Pass,Pass,1.8631189755,5.6768754767,Pass,Pass
 Warmup Convergence Information,DU_BT=SPACE FUNCTION_ST=DWELLING UNITS GENERAL_FL=BUILDING STORY 5_SCHG 7,RunPeriod: RUN PERIOD 1,0.3046969986,0.4495517686,Pass,Pass,1.4928692980,6.1698405502,Pass,Pass
 Warmup Convergence Information,DU_BT=SPACE FUNCTION_ST=DWELLING UNITS GENERAL_FL=BUILDING STORY 6_SCHG,RunPeriod: RUN PERIOD 1,0.3113734928,0.6339092674,Pass,Pass,0.9981240904,1.5570817031,Pass,Pass
 Warmup Convergence Information,DU_BT=SPACE FUNCTION_ST=DWELLING UNITS GENERAL_FL=BUILDING STORY 6_SCHG 1,RunPeriod: RUN PERIOD 1,0.2960771313,0.5461657759,Pass,Pass,2.9975745609,11.3657913721,Pass,Pass
 Warmup Convergence Information,DU_BT=SPACE FUNCTION_ST=DWELLING UNITS GENERAL_FL=BUILDING STORY 6_SCHG 2,RunPeriod: RUN PERIOD 1,0.3198357423,0.6467194159,Pass,Pass,0.6538581926,0.8643956018,Pass,Pass
 Warmup Convergence Information,DU_BT=SPACE FUNCTION_ST=DWELLING UNITS GENERAL_FL=BUILDING STORY 6_SCHG 3,RunPeriod: RUN PERIOD 1,0.2948206061,0.5479889611,Pass,Pass,9.7963709878,43.5959405982,Pass,Pass
 Warmup Convergence Information,DU_BT=SPACE FUNCTION_ST=DWELLING UNITS GENERAL_FL=BUILDING STORY 6_SCHG 4,RunPeriod: RUN PERIOD 1,0.2972666867,0.4658701480,Pass,Pass,0.5427450956,1.6299097405,Pass,Pass
 Warmup Convergence Information,DU_BT=SPACE FUNCTION_ST=DWELLING UNITS GENERAL_FL=BUILDING STORY 6_SCHG 5,RunPeriod: RUN PERIOD 1,0.3051060621,0.4515521761,Pass,Pass,2.8680238901,12.7432940535,Pass,Pass
 Warmup Convergence Information,DU_BT=SPACE FUNCTION_ST=DWELLING UNITS GENERAL_FL=BUILDING STORY 6_SCHG 6,RunPeriod: RUN PERIOD 1,0.2784320014,0.3711425366,Pass,Pass,0.4985473551,1.3554211278,Pass,Pass
 Warmup Convergence Information,DU_BT=SPACE FUNCTION_ST=DWELLING UNITS GENERAL_FL=BUILDING STORY 6_SCHG 7,RunPeriod: RUN PERIOD 1,0.2785764357,0.3678267507,Pass,Pass,0.6889875818,1.9151111385,Pass,Pass
 Warmup Convergence Information,DU_BT=SPACE FUNCTION_ST=DWELLING UNITS GENERAL_FL=BUILDING STORY 7_SCHG,RunPeriod: RUN PERIOD 1,0.2970354244,0.5504087629,Pass,Pass,1.0641374439,2.5441711126,Pass,Pass
 Warmup Convergence Information,DU_BT=SPACE FUNCTION_ST=DWELLING UNITS GENERAL_FL=BUILDING STORY 7_SCHG 1,RunPeriod: RUN PERIOD 1,0.3127500883,0.6357523726,Pass,Pass,4.2580855156,16.6426537501,Pass,Pass
 Warmup Convergence Information,DU_BT=SPACE FUNCTION_ST=DWELLING UNITS GENERAL_FL=BUILDING STORY 7_SCHG 2,RunPeriod: RUN PERIOD 1,0.2784745887,0.3774734819,Pass,Pass,0.4590991777,1.2731260684,Pass,Pass
 Warmup Convergence Information,DU_BT=SPACE FUNCTION_ST=DWELLING UNITS GENERAL_FL=BUILDING STORY 7_SCHG 3,RunPeriod: RUN PERIOD 1,0.3211813108,0.6495683852,Pass,Pass,0.5401087543,0.5695269893,Pass,Pass
 Warmup Convergence Information,DU_BT=SPACE FUNCTION_ST=DWELLING UNITS GENERAL_FL=BUILDING STORY 7_SCHG 4,RunPeriod: RUN PERIOD 1,0.3054842110,0.4547768173,Pass,Pass,4.7611155411,21.7997036040,Pass,Pass
 Warmup Convergence Information,DU_BT=SPACE FUNCTION_ST=DWELLING UNITS GENERAL_FL=BUILDING STORY 7_SCHG 5,RunPeriod: RUN PERIOD 1,0.2987025709,0.4687795650,Pass,Pass,0.6269963151,2.0043951106,Pass,Pass
 Warmup Convergence Information,DU_BT=SPACE FUNCTION_ST=DWELLING UNITS GENERAL_FL=BUILDING STORY 7_SCHG 6,RunPeriod: RUN PERIOD 1,0.2957901323,0.5523610061,Pass,Pass,1.7218383451,4.5905089501,Pass,Pass
 Warmup Convergence Information,DU_BT=SPACE FUNCTION_ST=DWELLING UNITS GENERAL_FL=BUILDING STORY 7_SCHG 7,RunPeriod: RUN PERIOD 1,0.2786337123,0.3743692577,Pass,Pass,0.5482201680,1.4908922970,Pass,Pass
 Warmup Convergence Information,DU_BT=SPACE FUNCTION_ST=DWELLING UNITS GENERAL_FL=BUILDING STORY 8_SCHG,RunPeriod: RUN PERIOD 1,0.2785686248,0.3878232152,Pass,Pass,0.4668389317,1.3622168402,Pass,Pass
 Warmup Convergence Information,DU_BT=SPACE FUNCTION_ST=DWELLING UNITS GENERAL_FL=BUILDING STORY 8_SCHG 1,RunPeriod: RUN PERIOD 1,0.3155895845,0.6405489764,Pass,Pass,0.7019377636,0.8302540678,Pass,Pass
 Warmup Convergence Information,DU_BT=SPACE FUNCTION_ST=DWELLING UNITS GENERAL_FL=BUILDING STORY 8_SCHG 2,RunPeriod: RUN PERIOD 1,0.2781733256,0.3917576818,Pass,Pass,0.4203915677,1.2243805557,Pass,Pass
 Warmup Convergence Information,DU_BT=SPACE FUNCTION_ST=DWELLING UNITS GENERAL_FL=BUILDING STORY 8_SCHG 3,RunPeriod: RUN PERIOD 1,0.2982515002,0.5625810175,Pass,Pass,0.8319096657,1.6769758087,Pass,Pass
 Warmup Convergence Information,DU_BT=SPACE FUNCTION_ST=DWELLING UNITS GENERAL_FL=BUILDING STORY 8_SCHG 4,RunPeriod: RUN PERIOD 1,0.3240194733,0.6547136210,Pass,Pass,0.5522480985,0.6093503620,Pass,Pass
 Warmup Convergence Information,DU_BT=SPACE FUNCTION_ST=DWELLING UNITS GENERAL_FL=BUILDING STORY 8_SCHG 5,RunPeriod: RUN PERIOD 1,0.3026095870,0.4750541535,Pass,Pass,2.0145934020,8.5761044408,Pass,Pass
 Warmup Convergence Information,DU_BT=SPACE FUNCTION_ST=DWELLING UNITS GENERAL_FL=BUILDING STORY 8_SCHG 6,RunPeriod: RUN PERIOD 1,0.3054339072,0.4612794909,Pass,Pass,0.7164369183,2.4004781795,Pass,Pass
 Warmup Convergence Information,DU_BT=SPACE FUNCTION_ST=DWELLING UNITS GENERAL_FL=BUILDING STORY 8_SCHG 7,RunPeriod: RUN PERIOD 1,0.2994708810,0.5603176143,Pass,Pass,0.5840943384,0.9443872395,Pass,Pass
 Warmup Convergence Information,DU_BT=SPACE FUNCTION_ST=DWELLING UNITS GENERAL_FL=BUILDING STORY 9_SCHG,RunPeriod: RUN PERIOD 1,0.3143766419,0.6076875455,Pass,Pass,0.5037326599,0.6144708124,Pass,Pass
 Warmup Convergence Information,DU_BT=SPACE FUNCTION_ST=DWELLING UNITS GENERAL_FL=BUILDING STORY 9_SCHG 1,RunPeriod: RUN PERIOD 1,0.3328974474,0.6708630338,Pass,Pass,0.9536329234,1.7283646324,Pass,Pass
 Warmup Convergence Information,DU_BT=SPACE FUNCTION_ST=DWELLING UNITS GENERAL_FL=BUILDING STORY 9_SCHG 2,RunPeriod: RUN PERIOD 1,0.2965095819,0.4269675983,Pass,Pass,0.7982270264,2.8185640528,Pass,Pass
 Warmup Convergence Information,DU_BT=SPACE FUNCTION_ST=DWELLING UNITS GENERAL_FL=BUILDING STORY 9_SCHG 3,RunPeriod: RUN PERIOD 1,0.3236373404,0.4877437071,Pass,Pass,0.2663463315,0.3783057118,Pass,Pass
 Warmup Convergence Information,DU_BT=SPACE FUNCTION_ST=DWELLING UNITS GENERAL_FL=BUILDING STORY 9_SCHG 4,RunPeriod: RUN PERIOD 1,0.3304451456,0.6618315333,Pass,Pass,3.4894310084,11.5669636679,Pass,Pass
 Warmup Convergence Information,DU_BT=SPACE FUNCTION_ST=DWELLING UNITS GENERAL_FL=BUILDING STORY 9_SCHG 5,RunPeriod: RUN PERIOD 1,0.2954424898,0.4264554298,Pass,Pass,0.9063203869,3.3355747796,Pass,Pass
 Warmup Convergence Information,DU_BT=SPACE FUNCTION_ST=DWELLING UNITS GENERAL_FL=BUILDING STORY 9_SCHG 6,RunPeriod: RUN PERIOD 1,0.3132358987,0.6105580393,Pass,Pass,0.5446297320,0.6816575914,Pass,Pass
 Warmup Convergence Information,DU_BT=SPACE FUNCTION_ST=DWELLING UNITS GENERAL_FL=BUILDING STORY 9_SCHG 7,RunPeriod: RUN PERIOD 1,0.3212653476,0.5059680406,Pass,Pass,0.2625329024,0.3925451470,Pass,Pass
 Warmup Convergence Information,WILD_ST=CORRIDOR/TRANSITION AREA OTHER-SCH-G_FL=BUILDING STORY 10_SCH=G,RunPeriod: RUN PERIOD 1,0.3333085131,0.6348764425,Pass,Pass,0.9661542713,1.6201675114,Pass,Pass
 Warmup Convergence Information,WILD_ST=CORRIDOR/TRANSITION AREA OTHER-SCH-G_FL=BUILDING STORY 1_SCH=G,RunPeriod: RUN PERIOD 1,0.2505704284,0.4992347877,Pass,Pass,3.3541550421,9.4544206349,Pass,Pass
 Warmup Convergence Information,WILD_ST=CORRIDOR/TRANSITION AREA OTHER-SCH-G_FL=BUILDING STORY 2_SCH=G,RunPeriod: RUN PERIOD 1,0.2145123842,0.4846441519,Pass,Pass,1.4154571463,4.1790810670,Pass,Pass
 Warmup Convergence Information,WILD_ST=CORRIDOR/TRANSITION AREA OTHER-SCH-G_FL=BUILDING STORY 3_SCH=G,RunPeriod: RUN PERIOD 1,0.1990205683,0.4615364363,Pass,Pass,0.5667646721,0.7324942896,Pass,Pass
 Warmup Convergence Information,WILD_ST=CORRIDOR/TRANSITION AREA OTHER-SCH-G_FL=BUILDING STORY 4_SCH=G,RunPeriod: RUN PERIOD 1,0.1959368013,0.4578532769,Pass,Pass,0.5966932437,0.8680236122,Pass,Pass
 Warmup Convergence Information,WILD_ST=CORRIDOR/TRANSITION AREA OTHER-SCH-G_FL=BUILDING STORY 5_SCH=G,RunPeriod: RUN PERIOD 1,0.1956687986,0.4575952445,Pass,Pass,0.6024832820,0.8934198276,Pass,Pass
 Warmup Convergence Information,WILD_ST=CORRIDOR/TRANSITION AREA OTHER-SCH-G_FL=BUILDING STORY 6_SCH=G,RunPeriod: RUN PERIOD 1,0.1961130895,0.4582160072,Pass,Pass,0.5940359568,0.8528875118,Pass,Pass
 Warmup Convergence Information,WILD_ST=CORRIDOR/TRANSITION AREA OTHER-SCH-G_FL=BUILDING STORY 7_SCH=G,RunPeriod: RUN PERIOD 1,0.1973005204,0.4599127308,Pass,Pass,0.5791355116,0.7731852326,Pass,Pass
 Warmup Convergence Information,WILD_ST=CORRIDOR/TRANSITION AREA OTHER-SCH-G_FL=BUILDING STORY 8_SCH=G,RunPeriod: RUN PERIOD 1,0.2015544256,0.4662846194,Pass,Pass,0.5950858955,0.7369497482,Pass,Pass
 Warmup Convergence Information,WILD_ST=CORRIDOR/TRANSITION AREA OTHER-SCH-G_FL=BUILDING STORY 9_SCH=G,RunPeriod: RUN PERIOD 1,0.2125067313,0.4755455412,Pass,Pass,0.6866387738,0.8495128680,Pass,Pass
! <Program Control Information:Threads/Parallel Sims>, Threading Supported,Maximum Number of Threads, Env Set Threads (OMP_NUM_THREADS), EP Env Set Threads (EP_OMP_NUM_THREADS), IDF Set Threads, Number of Threads Used (Interior Radiant Exchange), Number Nominal Surfaces, Number Parallel Sims
Program Control:Threads/Parallel Sims, No,1, N/A, N/A, N/A, N/A, N/A, N/A
End of Data
