! Program Version,EnergyPlus, Version 8.9.0-497bb3e71c, YMD=2018.06.06 17:01,
! Output:Meter Objects (applicable to this run)
Output:Meter,Electricity:Facility,hourly; !- [J]
Output:Meter:Cumulative,Electricity:Facility,hourly; !- [J]
Output:Meter,Electricity:Building,hourly; !- [J]
Output:Meter:Cumulative,Electricity:Building,hourly; !- [J]
Output:Meter,Electricity:Zone:BLOCKS-964_MULTIFAMILY_10_CORE,hourly; !- [J]
Output:Meter:Cumulative,Electricity:Zone:BLOCKS-964_MULTIFAMILY_10_CORE,hourly; !- [J]
Output:Meter,InteriorLights:Electricity,hourly; !- [J]
Output:Meter:Cumulative,InteriorLights:Electricity,hourly; !- [J]
Output:Meter,InteriorLights:Electricity:Zone:BLOCKS-964_MULTIFAMILY_10_CORE,hourly; !- [J]
Output:Meter:Cumulative,InteriorLights:Electricity:Zone:BLOCKS-964_MULTIFAMILY_10_CORE,hourly; !- [J]
Output:Meter,General:InteriorLights:Electricity,hourly; !- [J]
Output:Meter:Cumulative,General:InteriorLights:Electricity,hourly; !- [J]
Output:Meter,Electricity:Zone:BLOCKS-964_MULTIFAMILY_10_EAST PERIMETER,hourly; !- [J]
Output:Meter:Cumulative,Electricity:Zone:BLOCKS-964_MULTIFAMILY_10_EAST PERIMETER,hourly; !- [J]
Output:Meter,InteriorLights:Electricity:Zone:BLOCKS-964_MULTIFAMILY_10_EAST PERIMETER,hourly; !- [J]
Output:Meter:Cumulative,InteriorLights:Electricity:Zone:BLOCKS-964_MULTIFAMILY_10_EAST PERIMETER,hourly; !- [J]
Output:Meter,Electricity:Zone:BLOCKS-964_MULTIFAMILY_10_NORTH PERIMETER,hourly; !- [J]
Output:Meter:Cumulative,Electricity:Zone:BLOCKS-964_MULTIFAMILY_10_NORTH PERIMETER,hourly; !- [J]
Output:Meter,InteriorLights:Electricity:Zone:BLOCKS-964_MULTIFAMILY_10_NORTH PERIMETER,hourly; !- [J]
Output:Meter:Cumulative,InteriorLights:Electricity:Zone:BLOCKS-964_MULTIFAMILY_10_NORTH PERIMETER,hourly; !- [J]
Output:Meter,Electricity:Zone:BLOCKS-964_MULTIFAMILY_10_SOUTH PERIMETER,hourly; !- [J]
Output:Meter:Cumulative,Electricity:Zone:BLOCKS-964_MULTIFAMILY_10_SOUTH PERIMETER,hourly; !- [J]
Output:Meter,InteriorLights:Electricity:Zone:BLOCKS-964_MULTIFAMILY_10_SOUTH PERIMETER,hourly; !- [J]
Output:Meter:Cumulative,InteriorLights:Electricity:Zone:BLOCKS-964_MULTIFAMILY_10_SOUTH PERIMETER,hourly; !- [J]
Output:Meter,Electricity:Zone:BLOCKS-964_MULTIFAMILY_10_WEST PERIMETER,hourly; !- [J]
Output:Meter:Cumulative,Electricity:Zone:BLOCKS-964_MULTIFAMILY_10_WEST PERIMETER,hourly; !- [J]
Output:Meter,InteriorLights:Electricity:Zone:BLOCKS-964_MULTIFAMILY_10_WEST PERIMETER,hourly; !- [J]
Output:Meter:Cumulative,InteriorLights:Electricity:Zone:BLOCKS-964_MULTIFAMILY_10_WEST PERIMETER,hourly; !- [J]
Output:Meter,Electricity:Zone:BLOCKS-964_MULTIFAMILY_1_CORE,hourly; !- [J]
Output:Meter:Cumulative,Electricity:Zone:BLOCKS-964_MULTIFAMILY_1_CORE,hourly; !- [J]
Output:Meter,InteriorLights:Electricity:Zone:BLOCKS-964_MULTIFAMILY_1_CORE,hourly; !- [J]
Output:Meter:Cumulative,InteriorLights:Electricity:Zone:BLOCKS-964_MULTIFAMILY_1_CORE,hourly; !- [J]
Output:Meter,Electricity:Zone:BLOCKS-964_MULTIFAMILY_1_EAST PERIMETER,hourly; !- [J]
Output:Meter:Cumulative,Electricity:Zone:BLOCKS-964_MULTIFAMILY_1_EAST PERIMETER,hourly; !- [J]
Output:Meter,InteriorLights:Electricity:Zone:BLOCKS-964_MULTIFAMILY_1_EAST PERIMETER,hourly; !- [J]
Output:Meter:Cumulative,InteriorLights:Electricity:Zone:BLOCKS-964_MULTIFAMILY_1_EAST PERIMETER,hourly; !- [J]
Output:Meter,Electricity:Zone:BLOCKS-964_MULTIFAMILY_1_NORTH PERIMETER,hourly; !- [J]
Output:Meter:Cumulative,Electricity:Zone:BLOCKS-964_MULTIFAMILY_1_NORTH PERIMETER,hourly; !- [J]
Output:Meter,InteriorLights:Electricity:Zone:BLOCKS-964_MULTIFAMILY_1_NORTH PERIMETER,hourly; !- [J]
Output:Meter:Cumulative,InteriorLights:Electricity:Zone:BLOCKS-964_MULTIFAMILY_1_NORTH PERIMETER,hourly; !- [J]
Output:Meter,Electricity:Zone:BLOCKS-964_MULTIFAMILY_1_SOUTH PERIMETER,hourly; !- [J]
Output:Meter:Cumulative,Electricity:Zone:BLOCKS-964_MULTIFAMILY_1_SOUTH PERIMETER,hourly; !- [J]
Output:Meter,InteriorLights:Electricity:Zone:BLOCKS-964_MULTIFAMILY_1_SOUTH PERIMETER,hourly; !- [J]
Output:Meter:Cumulative,InteriorLights:Electricity:Zone:BLOCKS-964_MULTIFAMILY_1_SOUTH PERIMETER,hourly; !- [J]
Output:Meter,Electricity:Zone:BLOCKS-964_MULTIFAMILY_1_WEST PERIMETER,hourly; !- [J]
Output:Meter:Cumulative,Electricity:Zone:BLOCKS-964_MULTIFAMILY_1_WEST PERIMETER,hourly; !- [J]
Output:Meter,InteriorLights:Electricity:Zone:BLOCKS-964_MULTIFAMILY_1_WEST PERIMETER,hourly; !- [J]
Output:Meter:Cumulative,InteriorLights:Electricity:Zone:BLOCKS-964_MULTIFAMILY_1_WEST PERIMETER,hourly; !- [J]
Output:Meter,Electricity:Zone:BLOCKS-964_MULTIFAMILY_2_CORE,hourly; !- [J]
Output:Meter:Cumulative,Electricity:Zone:BLOCKS-964_MULTIFAMILY_2_CORE,hourly; !- [J]
Output:Meter,InteriorLights:Electricity:Zone:BLOCKS-964_MULTIFAMILY_2_CORE,hourly; !- [J]
Output:Meter:Cumulative,InteriorLights:Electricity:Zone:BLOCKS-964_MULTIFAMILY_2_CORE,hourly; !- [J]
Output:Meter,Electricity:Zone:BLOCKS-964_MULTIFAMILY_2_EAST PERIMETER,hourly; !- [J]
Output:Meter:Cumulative,Electricity:Zone:BLOCKS-964_MULTIFAMILY_2_EAST PERIMETER,hourly; !- [J]
Output:Meter,InteriorLights:Electricity:Zone:BLOCKS-964_MULTIFAMILY_2_EAST PERIMETER,hourly; !- [J]
Output:Meter:Cumulative,InteriorLights:Electricity:Zone:BLOCKS-964_MULTIFAMILY_2_EAST PERIMETER,hourly; !- [J]
Output:Meter,Electricity:Zone:BLOCKS-964_MULTIFAMILY_2_NORTH PERIMETER,hourly; !- [J]
Output:Meter:Cumulative,Electricity:Zone:BLOCKS-964_MULTIFAMILY_2_NORTH PERIMETER,hourly; !- [J]
Output:Meter,InteriorLights:Electricity:Zone:BLOCKS-964_MULTIFAMILY_2_NORTH PERIMETER,hourly; !- [J]
Output:Meter:Cumulative,InteriorLights:Electricity:Zone:BLOCKS-964_MULTIFAMILY_2_NORTH PERIMETER,hourly; !- [J]
Output:Meter,Electricity:Zone:BLOCKS-964_MULTIFAMILY_2_SOUTH PERIMETER,hourly; !- [J]
Output:Meter:Cumulative,Electricity:Zone:BLOCKS-964_MULTIFAMILY_2_SOUTH PERIMETER,hourly; !- [J]
Output:Meter,InteriorLights:Electricity:Zone:BLOCKS-964_MULTIFAMILY_2_SOUTH PERIMETER,hourly; !- [J]
Output:Meter:Cumulative,InteriorLights:Electricity:Zone:BLOCKS-964_MULTIFAMILY_2_SOUTH PERIMETER,hourly; !- [J]
Output:Meter,Electricity:Zone:BLOCKS-964_MULTIFAMILY_2_WEST PERIMETER,hourly; !- [J]
Output:Meter:Cumulative,Electricity:Zone:BLOCKS-964_MULTIFAMILY_2_WEST PERIMETER,hourly; !- [J]
Output:Meter,InteriorLights:Electricity:Zone:BLOCKS-964_MULTIFAMILY_2_WEST PERIMETER,hourly; !- [J]
Output:Meter:Cumulative,InteriorLights:Electricity:Zone:BLOCKS-964_MULTIFAMILY_2_WEST PERIMETER,hourly; !- [J]
Output:Meter,Electricity:Zone:BLOCKS-964_MULTIFAMILY_3_CORE,hourly; !- [J]
Output:Meter:Cumulative,Electricity:Zone:BLOCKS-964_MULTIFAMILY_3_CORE,hourly; !- [J]
Output:Meter,InteriorLights:Electricity:Zone:BLOCKS-964_MULTIFAMILY_3_CORE,hourly; !- [J]
Output:Meter:Cumulative,InteriorLights:Electricity:Zone:BLOCKS-964_MULTIFAMILY_3_CORE,hourly; !- [J]
Output:Meter,Electricity:Zone:BLOCKS-964_MULTIFAMILY_3_EAST PERIMETER,hourly; !- [J]
Output:Meter:Cumulative,Electricity:Zone:BLOCKS-964_MULTIFAMILY_3_EAST PERIMETER,hourly; !- [J]
Output:Meter,InteriorLights:Electricity:Zone:BLOCKS-964_MULTIFAMILY_3_EAST PERIMETER,hourly; !- [J]
Output:Meter:Cumulative,InteriorLights:Electricity:Zone:BLOCKS-964_MULTIFAMILY_3_EAST PERIMETER,hourly; !- [J]
Output:Meter,Electricity:Zone:BLOCKS-964_MULTIFAMILY_3_NORTH PERIMETER,hourly; !- [J]
Output:Meter:Cumulative,Electricity:Zone:BLOCKS-964_MULTIFAMILY_3_NORTH PERIMETER,hourly; !- [J]
Output:Meter,InteriorLights:Electricity:Zone:BLOCKS-964_MULTIFAMILY_3_NORTH PERIMETER,hourly; !- [J]
Output:Meter:Cumulative,InteriorLights:Electricity:Zone:BLOCKS-964_MULTIFAMILY_3_NORTH PERIMETER,hourly; !- [J]
Output:Meter,Electricity:Zone:BLOCKS-964_MULTIFAMILY_3_SOUTH PERIMETER,hourly; !- [J]
Output:Meter:Cumulative,Electricity:Zone:BLOCKS-964_MULTIFAMILY_3_SOUTH PERIMETER,hourly; !- [J]
Output:Meter,InteriorLights:Electricity:Zone:BLOCKS-964_MULTIFAMILY_3_SOUTH PERIMETER,hourly; !- [J]
Output:Meter:Cumulative,InteriorLights:Electricity:Zone:BLOCKS-964_MULTIFAMILY_3_SOUTH PERIMETER,hourly; !- [J]
Output:Meter,Electricity:Zone:BLOCKS-964_MULTIFAMILY_3_WEST PERIMETER,hourly; !- [J]
Output:Meter:Cumulative,Electricity:Zone:BLOCKS-964_MULTIFAMILY_3_WEST PERIMETER,hourly; !- [J]
Output:Meter,InteriorLights:Electricity:Zone:BLOCKS-964_MULTIFAMILY_3_WEST PERIMETER,hourly; !- [J]
Output:Meter:Cumulative,InteriorLights:Electricity:Zone:BLOCKS-964_MULTIFAMILY_3_WEST PERIMETER,hourly; !- [J]
Output:Meter,Electricity:Zone:BLOCKS-964_MULTIFAMILY_4_CORE,hourly; !- [J]
Output:Meter:Cumulative,Electricity:Zone:BLOCKS-964_MULTIFAMILY_4_CORE,hourly; !- [J]
Output:Meter,InteriorLights:Electricity:Zone:BLOCKS-964_MULTIFAMILY_4_CORE,hourly; !- [J]
Output:Meter:Cumulative,InteriorLights:Electricity:Zone:BLOCKS-964_MULTIFAMILY_4_CORE,hourly; !- [J]
Output:Meter,Electricity:Zone:BLOCKS-964_MULTIFAMILY_4_EAST PERIMETER,hourly; !- [J]
Output:Meter:Cumulative,Electricity:Zone:BLOCKS-964_MULTIFAMILY_4_EAST PERIMETER,hourly; !- [J]
Output:Meter,InteriorLights:Electricity:Zone:BLOCKS-964_MULTIFAMILY_4_EAST PERIMETER,hourly; !- [J]
Output:Meter:Cumulative,InteriorLights:Electricity:Zone:BLOCKS-964_MULTIFAMILY_4_EAST PERIMETER,hourly; !- [J]
Output:Meter,Electricity:Zone:BLOCKS-964_MULTIFAMILY_4_NORTH PERIMETER,hourly; !- [J]
Output:Meter:Cumulative,Electricity:Zone:BLOCKS-964_MULTIFAMILY_4_NORTH PERIMETER,hourly; !- [J]
Output:Meter,InteriorLights:Electricity:Zone:BLOCKS-964_MULTIFAMILY_4_NORTH PERIMETER,hourly; !- [J]
Output:Meter:Cumulative,InteriorLights:Electricity:Zone:BLOCKS-964_MULTIFAMILY_4_NORTH PERIMETER,hourly; !- [J]
Output:Meter,Electricity:Zone:BLOCKS-964_MULTIFAMILY_4_SOUTH PERIMETER,hourly; !- [J]
Output:Meter:Cumulative,Electricity:Zone:BLOCKS-964_MULTIFAMILY_4_SOUTH PERIMETER,hourly; !- [J]
Output:Meter,InteriorLights:Electricity:Zone:BLOCKS-964_MULTIFAMILY_4_SOUTH PERIMETER,hourly; !- [J]
Output:Meter:Cumulative,InteriorLights:Electricity:Zone:BLOCKS-964_MULTIFAMILY_4_SOUTH PERIMETER,hourly; !- [J]
Output:Meter,Electricity:Zone:BLOCKS-964_MULTIFAMILY_4_WEST PERIMETER,hourly; !- [J]
Output:Meter:Cumulative,Electricity:Zone:BLOCKS-964_MULTIFAMILY_4_WEST PERIMETER,hourly; !- [J]
Output:Meter,InteriorLights:Electricity:Zone:BLOCKS-964_MULTIFAMILY_4_WEST PERIMETER,hourly; !- [J]
Output:Meter:Cumulative,InteriorLights:Electricity:Zone:BLOCKS-964_MULTIFAMILY_4_WEST PERIMETER,hourly; !- [J]
Output:Meter,Electricity:Zone:BLOCKS-964_MULTIFAMILY_5_CORE,hourly; !- [J]
Output:Meter:Cumulative,Electricity:Zone:BLOCKS-964_MULTIFAMILY_5_CORE,hourly; !- [J]
Output:Meter,InteriorLights:Electricity:Zone:BLOCKS-964_MULTIFAMILY_5_CORE,hourly; !- [J]
Output:Meter:Cumulative,InteriorLights:Electricity:Zone:BLOCKS-964_MULTIFAMILY_5_CORE,hourly; !- [J]
Output:Meter,Electricity:Zone:BLOCKS-964_MULTIFAMILY_5_EAST PERIMETER,hourly; !- [J]
Output:Meter:Cumulative,Electricity:Zone:BLOCKS-964_MULTIFAMILY_5_EAST PERIMETER,hourly; !- [J]
Output:Meter,InteriorLights:Electricity:Zone:BLOCKS-964_MULTIFAMILY_5_EAST PERIMETER,hourly; !- [J]
Output:Meter:Cumulative,InteriorLights:Electricity:Zone:BLOCKS-964_MULTIFAMILY_5_EAST PERIMETER,hourly; !- [J]
Output:Meter,Electricity:Zone:BLOCKS-964_MULTIFAMILY_5_NORTH PERIMETER,hourly; !- [J]
Output:Meter:Cumulative,Electricity:Zone:BLOCKS-964_MULTIFAMILY_5_NORTH PERIMETER,hourly; !- [J]
Output:Meter,InteriorLights:Electricity:Zone:BLOCKS-964_MULTIFAMILY_5_NORTH PERIMETER,hourly; !- [J]
Output:Meter:Cumulative,InteriorLights:Electricity:Zone:BLOCKS-964_MULTIFAMILY_5_NORTH PERIMETER,hourly; !- [J]
Output:Meter,Electricity:Zone:BLOCKS-964_MULTIFAMILY_5_SOUTH PERIMETER,hourly; !- [J]
Output:Meter:Cumulative,Electricity:Zone:BLOCKS-964_MULTIFAMILY_5_SOUTH PERIMETER,hourly; !- [J]
Output:Meter,InteriorLights:Electricity:Zone:BLOCKS-964_MULTIFAMILY_5_SOUTH PERIMETER,hourly; !- [J]
Output:Meter:Cumulative,InteriorLights:Electricity:Zone:BLOCKS-964_MULTIFAMILY_5_SOUTH PERIMETER,hourly; !- [J]
Output:Meter,Electricity:Zone:BLOCKS-964_MULTIFAMILY_5_WEST PERIMETER,hourly; !- [J]
Output:Meter:Cumulative,Electricity:Zone:BLOCKS-964_MULTIFAMILY_5_WEST PERIMETER,hourly; !- [J]
Output:Meter,InteriorLights:Electricity:Zone:BLOCKS-964_MULTIFAMILY_5_WEST PERIMETER,hourly; !- [J]
Output:Meter:Cumulative,InteriorLights:Electricity:Zone:BLOCKS-964_MULTIFAMILY_5_WEST PERIMETER,hourly; !- [J]
Output:Meter,Electricity:Zone:BLOCKS-964_MULTIFAMILY_6_CORE,hourly; !- [J]
Output:Meter:Cumulative,Electricity:Zone:BLOCKS-964_MULTIFAMILY_6_CORE,hourly; !- [J]
Output:Meter,InteriorLights:Electricity:Zone:BLOCKS-964_MULTIFAMILY_6_CORE,hourly; !- [J]
Output:Meter:Cumulative,InteriorLights:Electricity:Zone:BLOCKS-964_MULTIFAMILY_6_CORE,hourly; !- [J]
Output:Meter,Electricity:Zone:BLOCKS-964_MULTIFAMILY_6_EAST PERIMETER,hourly; !- [J]
Output:Meter:Cumulative,Electricity:Zone:BLOCKS-964_MULTIFAMILY_6_EAST PERIMETER,hourly; !- [J]
Output:Meter,InteriorLights:Electricity:Zone:BLOCKS-964_MULTIFAMILY_6_EAST PERIMETER,hourly; !- [J]
Output:Meter:Cumulative,InteriorLights:Electricity:Zone:BLOCKS-964_MULTIFAMILY_6_EAST PERIMETER,hourly; !- [J]
Output:Meter,Electricity:Zone:BLOCKS-964_MULTIFAMILY_6_NORTH PERIMETER,hourly; !- [J]
Output:Meter:Cumulative,Electricity:Zone:BLOCKS-964_MULTIFAMILY_6_NORTH PERIMETER,hourly; !- [J]
Output:Meter,InteriorLights:Electricity:Zone:BLOCKS-964_MULTIFAMILY_6_NORTH PERIMETER,hourly; !- [J]
Output:Meter:Cumulative,InteriorLights:Electricity:Zone:BLOCKS-964_MULTIFAMILY_6_NORTH PERIMETER,hourly; !- [J]
Output:Meter,Electricity:Zone:BLOCKS-964_MULTIFAMILY_6_SOUTH PERIMETER,hourly; !- [J]
Output:Meter:Cumulative,Electricity:Zone:BLOCKS-964_MULTIFAMILY_6_SOUTH PERIMETER,hourly; !- [J]
Output:Meter,InteriorLights:Electricity:Zone:BLOCKS-964_MULTIFAMILY_6_SOUTH PERIMETER,hourly; !- [J]
Output:Meter:Cumulative,InteriorLights:Electricity:Zone:BLOCKS-964_MULTIFAMILY_6_SOUTH PERIMETER,hourly; !- [J]
Output:Meter,Electricity:Zone:BLOCKS-964_MULTIFAMILY_6_WEST PERIMETER,hourly; !- [J]
Output:Meter:Cumulative,Electricity:Zone:BLOCKS-964_MULTIFAMILY_6_WEST PERIMETER,hourly; !- [J]
Output:Meter,InteriorLights:Electricity:Zone:BLOCKS-964_MULTIFAMILY_6_WEST PERIMETER,hourly; !- [J]
Output:Meter:Cumulative,InteriorLights:Electricity:Zone:BLOCKS-964_MULTIFAMILY_6_WEST PERIMETER,hourly; !- [J]
Output:Meter,Electricity:Zone:BLOCKS-964_MULTIFAMILY_7_CORE,hourly; !- [J]
Output:Meter:Cumulative,Electricity:Zone:BLOCKS-964_MULTIFAMILY_7_CORE,hourly; !- [J]
Output:Meter,InteriorLights:Electricity:Zone:BLOCKS-964_MULTIFAMILY_7_CORE,hourly; !- [J]
Output:Meter:Cumulative,InteriorLights:Electricity:Zone:BLOCKS-964_MULTIFAMILY_7_CORE,hourly; !- [J]
Output:Meter,Electricity:Zone:BLOCKS-964_MULTIFAMILY_7_EAST PERIMETER,hourly; !- [J]
Output:Meter:Cumulative,Electricity:Zone:BLOCKS-964_MULTIFAMILY_7_EAST PERIMETER,hourly; !- [J]
Output:Meter,InteriorLights:Electricity:Zone:BLOCKS-964_MULTIFAMILY_7_EAST PERIMETER,hourly; !- [J]
Output:Meter:Cumulative,InteriorLights:Electricity:Zone:BLOCKS-964_MULTIFAMILY_7_EAST PERIMETER,hourly; !- [J]
Output:Meter,Electricity:Zone:BLOCKS-964_MULTIFAMILY_7_NORTH PERIMETER,hourly; !- [J]
Output:Meter:Cumulative,Electricity:Zone:BLOCKS-964_MULTIFAMILY_7_NORTH PERIMETER,hourly; !- [J]
Output:Meter,InteriorLights:Electricity:Zone:BLOCKS-964_MULTIFAMILY_7_NORTH PERIMETER,hourly; !- [J]
Output:Meter:Cumulative,InteriorLights:Electricity:Zone:BLOCKS-964_MULTIFAMILY_7_NORTH PERIMETER,hourly; !- [J]
Output:Meter,Electricity:Zone:BLOCKS-964_MULTIFAMILY_7_SOUTH PERIMETER,hourly; !- [J]
Output:Meter:Cumulative,Electricity:Zone:BLOCKS-964_MULTIFAMILY_7_SOUTH PERIMETER,hourly; !- [J]
Output:Meter,InteriorLights:Electricity:Zone:BLOCKS-964_MULTIFAMILY_7_SOUTH PERIMETER,hourly; !- [J]
Output:Meter:Cumulative,InteriorLights:Electricity:Zone:BLOCKS-964_MULTIFAMILY_7_SOUTH PERIMETER,hourly; !- [J]
Output:Meter,Electricity:Zone:BLOCKS-964_MULTIFAMILY_7_WEST PERIMETER,hourly; !- [J]
Output:Meter:Cumulative,Electricity:Zone:BLOCKS-964_MULTIFAMILY_7_WEST PERIMETER,hourly; !- [J]
Output:Meter,InteriorLights:Electricity:Zone:BLOCKS-964_MULTIFAMILY_7_WEST PERIMETER,hourly; !- [J]
Output:Meter:Cumulative,InteriorLights:Electricity:Zone:BLOCKS-964_MULTIFAMILY_7_WEST PERIMETER,hourly; !- [J]
Output:Meter,Electricity:Zone:BLOCKS-964_MULTIFAMILY_8_CORE,hourly; !- [J]
Output:Meter:Cumulative,Electricity:Zone:BLOCKS-964_MULTIFAMILY_8_CORE,hourly; !- [J]
Output:Meter,InteriorLights:Electricity:Zone:BLOCKS-964_MULTIFAMILY_8_CORE,hourly; !- [J]
Output:Meter:Cumulative,InteriorLights:Electricity:Zone:BLOCKS-964_MULTIFAMILY_8_CORE,hourly; !- [J]
Output:Meter,Electricity:Zone:BLOCKS-964_MULTIFAMILY_8_EAST PERIMETER,hourly; !- [J]
Output:Meter:Cumulative,Electricity:Zone:BLOCKS-964_MULTIFAMILY_8_EAST PERIMETER,hourly; !- [J]
Output:Meter,InteriorLights:Electricity:Zone:BLOCKS-964_MULTIFAMILY_8_EAST PERIMETER,hourly; !- [J]
Output:Meter:Cumulative,InteriorLights:Electricity:Zone:BLOCKS-964_MULTIFAMILY_8_EAST PERIMETER,hourly; !- [J]
Output:Meter,Electricity:Zone:BLOCKS-964_MULTIFAMILY_8_NORTH PERIMETER,hourly; !- [J]
Output:Meter:Cumulative,Electricity:Zone:BLOCKS-964_MULTIFAMILY_8_NORTH PERIMETER,hourly; !- [J]
Output:Meter,InteriorLights:Electricity:Zone:BLOCKS-964_MULTIFAMILY_8_NORTH PERIMETER,hourly; !- [J]
Output:Meter:Cumulative,InteriorLights:Electricity:Zone:BLOCKS-964_MULTIFAMILY_8_NORTH PERIMETER,hourly; !- [J]
Output:Meter,Electricity:Zone:BLOCKS-964_MULTIFAMILY_8_SOUTH PERIMETER,hourly; !- [J]
Output:Meter:Cumulative,Electricity:Zone:BLOCKS-964_MULTIFAMILY_8_SOUTH PERIMETER,hourly; !- [J]
Output:Meter,InteriorLights:Electricity:Zone:BLOCKS-964_MULTIFAMILY_8_SOUTH PERIMETER,hourly; !- [J]
Output:Meter:Cumulative,InteriorLights:Electricity:Zone:BLOCKS-964_MULTIFAMILY_8_SOUTH PERIMETER,hourly; !- [J]
Output:Meter,Electricity:Zone:BLOCKS-964_MULTIFAMILY_8_WEST PERIMETER,hourly; !- [J]
Output:Meter:Cumulative,Electricity:Zone:BLOCKS-964_MULTIFAMILY_8_WEST PERIMETER,hourly; !- [J]
Output:Meter,InteriorLights:Electricity:Zone:BLOCKS-964_MULTIFAMILY_8_WEST PERIMETER,hourly; !- [J]
Output:Meter:Cumulative,InteriorLights:Electricity:Zone:BLOCKS-964_MULTIFAMILY_8_WEST PERIMETER,hourly; !- [J]
Output:Meter,Electricity:Zone:BLOCKS-964_MULTIFAMILY_9_CORE,hourly; !- [J]
Output:Meter:Cumulative,Electricity:Zone:BLOCKS-964_MULTIFAMILY_9_CORE,hourly; !- [J]
Output:Meter,InteriorLights:Electricity:Zone:BLOCKS-964_MULTIFAMILY_9_CORE,hourly; !- [J]
Output:Meter:Cumulative,InteriorLights:Electricity:Zone:BLOCKS-964_MULTIFAMILY_9_CORE,hourly; !- [J]
Output:Meter,Electricity:Zone:BLOCKS-964_MULTIFAMILY_9_EAST PERIMETER,hourly; !- [J]
Output:Meter:Cumulative,Electricity:Zone:BLOCKS-964_MULTIFAMILY_9_EAST PERIMETER,hourly; !- [J]
Output:Meter,InteriorLights:Electricity:Zone:BLOCKS-964_MULTIFAMILY_9_EAST PERIMETER,hourly; !- [J]
Output:Meter:Cumulative,InteriorLights:Electricity:Zone:BLOCKS-964_MULTIFAMILY_9_EAST PERIMETER,hourly; !- [J]
Output:Meter,Electricity:Zone:BLOCKS-964_MULTIFAMILY_9_NORTH PERIMETER,hourly; !- [J]
Output:Meter:Cumulative,Electricity:Zone:BLOCKS-964_MULTIFAMILY_9_NORTH PERIMETER,hourly; !- [J]
Output:Meter,InteriorLights:Electricity:Zone:BLOCKS-964_MULTIFAMILY_9_NORTH PERIMETER,hourly; !- [J]
Output:Meter:Cumulative,InteriorLights:Electricity:Zone:BLOCKS-964_MULTIFAMILY_9_NORTH PERIMETER,hourly; !- [J]
Output:Meter,Electricity:Zone:BLOCKS-964_MULTIFAMILY_9_SOUTH PERIMETER,hourly; !- [J]
Output:Meter:Cumulative,Electricity:Zone:BLOCKS-964_MULTIFAMILY_9_SOUTH PERIMETER,hourly; !- [J]
Output:Meter,InteriorLights:Electricity:Zone:BLOCKS-964_MULTIFAMILY_9_SOUTH PERIMETER,hourly; !- [J]
Output:Meter:Cumulative,InteriorLights:Electricity:Zone:BLOCKS-964_MULTIFAMILY_9_SOUTH PERIMETER,hourly; !- [J]
Output:Meter,Electricity:Zone:BLOCKS-964_MULTIFAMILY_9_WEST PERIMETER,hourly; !- [J]
Output:Meter:Cumulative,Electricity:Zone:BLOCKS-964_MULTIFAMILY_9_WEST PERIMETER,hourly; !- [J]
Output:Meter,InteriorLights:Electricity:Zone:BLOCKS-964_MULTIFAMILY_9_WEST PERIMETER,hourly; !- [J]
Output:Meter:Cumulative,InteriorLights:Electricity:Zone:BLOCKS-964_MULTIFAMILY_9_WEST PERIMETER,hourly; !- [J]
Output:Meter,InteriorEquipment:Electricity,hourly; !- [J]
Output:Meter:Cumulative,InteriorEquipment:Electricity,hourly; !- [J]
Output:Meter,InteriorEquipment:Electricity:Zone:BLOCKS-964_MULTIFAMILY_10_CORE,hourly; !- [J]
Output:Meter:Cumulative,InteriorEquipment:Electricity:Zone:BLOCKS-964_MULTIFAMILY_10_CORE,hourly; !- [J]
Output:Meter,General:InteriorEquipment:Electricity,hourly; !- [J]
Output:Meter:Cumulative,General:InteriorEquipment:Electricity,hourly; !- [J]
Output:Meter,InteriorEquipment:Electricity:Zone:BLOCKS-964_MULTIFAMILY_10_EAST PERIMETER,hourly; !- [J]
Output:Meter:Cumulative,InteriorEquipment:Electricity:Zone:BLOCKS-964_MULTIFAMILY_10_EAST PERIMETER,hourly; !- [J]
Output:Meter,InteriorEquipment:Electricity:Zone:BLOCKS-964_MULTIFAMILY_10_NORTH PERIMETER,hourly; !- [J]
Output:Meter:Cumulative,InteriorEquipment:Electricity:Zone:BLOCKS-964_MULTIFAMILY_10_NORTH PERIMETER,hourly; !- [J]
Output:Meter,InteriorEquipment:Electricity:Zone:BLOCKS-964_MULTIFAMILY_10_SOUTH PERIMETER,hourly; !- [J]
Output:Meter:Cumulative,InteriorEquipment:Electricity:Zone:BLOCKS-964_MULTIFAMILY_10_SOUTH PERIMETER,hourly; !- [J]
Output:Meter,InteriorEquipment:Electricity:Zone:BLOCKS-964_MULTIFAMILY_10_WEST PERIMETER,hourly; !- [J]
Output:Meter:Cumulative,InteriorEquipment:Electricity:Zone:BLOCKS-964_MULTIFAMILY_10_WEST PERIMETER,hourly; !- [J]
Output:Meter,InteriorEquipment:Electricity:Zone:BLOCKS-964_MULTIFAMILY_1_CORE,hourly; !- [J]
Output:Meter:Cumulative,InteriorEquipment:Electricity:Zone:BLOCKS-964_MULTIFAMILY_1_CORE,hourly; !- [J]
Output:Meter,InteriorEquipment:Electricity:Zone:BLOCKS-964_MULTIFAMILY_1_EAST PERIMETER,hourly; !- [J]
Output:Meter:Cumulative,InteriorEquipment:Electricity:Zone:BLOCKS-964_MULTIFAMILY_1_EAST PERIMETER,hourly; !- [J]
Output:Meter,InteriorEquipment:Electricity:Zone:BLOCKS-964_MULTIFAMILY_1_NORTH PERIMETER,hourly; !- [J]
Output:Meter:Cumulative,InteriorEquipment:Electricity:Zone:BLOCKS-964_MULTIFAMILY_1_NORTH PERIMETER,hourly; !- [J]
Output:Meter,InteriorEquipment:Electricity:Zone:BLOCKS-964_MULTIFAMILY_1_SOUTH PERIMETER,hourly; !- [J]
Output:Meter:Cumulative,InteriorEquipment:Electricity:Zone:BLOCKS-964_MULTIFAMILY_1_SOUTH PERIMETER,hourly; !- [J]
Output:Meter,InteriorEquipment:Electricity:Zone:BLOCKS-964_MULTIFAMILY_1_WEST PERIMETER,hourly; !- [J]
Output:Meter:Cumulative,InteriorEquipment:Electricity:Zone:BLOCKS-964_MULTIFAMILY_1_WEST PERIMETER,hourly; !- [J]
Output:Meter,InteriorEquipment:Electricity:Zone:BLOCKS-964_MULTIFAMILY_2_CORE,hourly; !- [J]
Output:Meter:Cumulative,InteriorEquipment:Electricity:Zone:BLOCKS-964_MULTIFAMILY_2_CORE,hourly; !- [J]
Output:Meter,InteriorEquipment:Electricity:Zone:BLOCKS-964_MULTIFAMILY_2_EAST PERIMETER,hourly; !- [J]
Output:Meter:Cumulative,InteriorEquipment:Electricity:Zone:BLOCKS-964_MULTIFAMILY_2_EAST PERIMETER,hourly; !- [J]
Output:Meter,InteriorEquipment:Electricity:Zone:BLOCKS-964_MULTIFAMILY_2_NORTH PERIMETER,hourly; !- [J]
Output:Meter:Cumulative,InteriorEquipment:Electricity:Zone:BLOCKS-964_MULTIFAMILY_2_NORTH PERIMETER,hourly; !- [J]
Output:Meter,InteriorEquipment:Electricity:Zone:BLOCKS-964_MULTIFAMILY_2_SOUTH PERIMETER,hourly; !- [J]
Output:Meter:Cumulative,InteriorEquipment:Electricity:Zone:BLOCKS-964_MULTIFAMILY_2_SOUTH PERIMETER,hourly; !- [J]
Output:Meter,InteriorEquipment:Electricity:Zone:BLOCKS-964_MULTIFAMILY_2_WEST PERIMETER,hourly; !- [J]
Output:Meter:Cumulative,InteriorEquipment:Electricity:Zone:BLOCKS-964_MULTIFAMILY_2_WEST PERIMETER,hourly; !- [J]
Output:Meter,InteriorEquipment:Electricity:Zone:BLOCKS-964_MULTIFAMILY_3_CORE,hourly; !- [J]
Output:Meter:Cumulative,InteriorEquipment:Electricity:Zone:BLOCKS-964_MULTIFAMILY_3_CORE,hourly; !- [J]
Output:Meter,InteriorEquipment:Electricity:Zone:BLOCKS-964_MULTIFAMILY_3_EAST PERIMETER,hourly; !- [J]
Output:Meter:Cumulative,InteriorEquipment:Electricity:Zone:BLOCKS-964_MULTIFAMILY_3_EAST PERIMETER,hourly; !- [J]
Output:Meter,InteriorEquipment:Electricity:Zone:BLOCKS-964_MULTIFAMILY_3_NORTH PERIMETER,hourly; !- [J]
Output:Meter:Cumulative,InteriorEquipment:Electricity:Zone:BLOCKS-964_MULTIFAMILY_3_NORTH PERIMETER,hourly; !- [J]
Output:Meter,InteriorEquipment:Electricity:Zone:BLOCKS-964_MULTIFAMILY_3_SOUTH PERIMETER,hourly; !- [J]
Output:Meter:Cumulative,InteriorEquipment:Electricity:Zone:BLOCKS-964_MULTIFAMILY_3_SOUTH PERIMETER,hourly; !- [J]
Output:Meter,InteriorEquipment:Electricity:Zone:BLOCKS-964_MULTIFAMILY_3_WEST PERIMETER,hourly; !- [J]
Output:Meter:Cumulative,InteriorEquipment:Electricity:Zone:BLOCKS-964_MULTIFAMILY_3_WEST PERIMETER,hourly; !- [J]
Output:Meter,InteriorEquipment:Electricity:Zone:BLOCKS-964_MULTIFAMILY_4_CORE,hourly; !- [J]
Output:Meter:Cumulative,InteriorEquipment:Electricity:Zone:BLOCKS-964_MULTIFAMILY_4_CORE,hourly; !- [J]
Output:Meter,InteriorEquipment:Electricity:Zone:BLOCKS-964_MULTIFAMILY_4_EAST PERIMETER,hourly; !- [J]
Output:Meter:Cumulative,InteriorEquipment:Electricity:Zone:BLOCKS-964_MULTIFAMILY_4_EAST PERIMETER,hourly; !- [J]
Output:Meter,InteriorEquipment:Electricity:Zone:BLOCKS-964_MULTIFAMILY_4_NORTH PERIMETER,hourly; !- [J]
Output:Meter:Cumulative,InteriorEquipment:Electricity:Zone:BLOCKS-964_MULTIFAMILY_4_NORTH PERIMETER,hourly; !- [J]
Output:Meter,InteriorEquipment:Electricity:Zone:BLOCKS-964_MULTIFAMILY_4_SOUTH PERIMETER,hourly; !- [J]
Output:Meter:Cumulative,InteriorEquipment:Electricity:Zone:BLOCKS-964_MULTIFAMILY_4_SOUTH PERIMETER,hourly; !- [J]
Output:Meter,InteriorEquipment:Electricity:Zone:BLOCKS-964_MULTIFAMILY_4_WEST PERIMETER,hourly; !- [J]
Output:Meter:Cumulative,InteriorEquipment:Electricity:Zone:BLOCKS-964_MULTIFAMILY_4_WEST PERIMETER,hourly; !- [J]
Output:Meter,InteriorEquipment:Electricity:Zone:BLOCKS-964_MULTIFAMILY_5_CORE,hourly; !- [J]
Output:Meter:Cumulative,InteriorEquipment:Electricity:Zone:BLOCKS-964_MULTIFAMILY_5_CORE,hourly; !- [J]
Output:Meter,InteriorEquipment:Electricity:Zone:BLOCKS-964_MULTIFAMILY_5_EAST PERIMETER,hourly; !- [J]
Output:Meter:Cumulative,InteriorEquipment:Electricity:Zone:BLOCKS-964_MULTIFAMILY_5_EAST PERIMETER,hourly; !- [J]
Output:Meter,InteriorEquipment:Electricity:Zone:BLOCKS-964_MULTIFAMILY_5_NORTH PERIMETER,hourly; !- [J]
Output:Meter:Cumulative,InteriorEquipment:Electricity:Zone:BLOCKS-964_MULTIFAMILY_5_NORTH PERIMETER,hourly; !- [J]
Output:Meter,InteriorEquipment:Electricity:Zone:BLOCKS-964_MULTIFAMILY_5_SOUTH PERIMETER,hourly; !- [J]
Output:Meter:Cumulative,InteriorEquipment:Electricity:Zone:BLOCKS-964_MULTIFAMILY_5_SOUTH PERIMETER,hourly; !- [J]
Output:Meter,InteriorEquipment:Electricity:Zone:BLOCKS-964_MULTIFAMILY_5_WEST PERIMETER,hourly; !- [J]
Output:Meter:Cumulative,InteriorEquipment:Electricity:Zone:BLOCKS-964_MULTIFAMILY_5_WEST PERIMETER,hourly; !- [J]
Output:Meter,InteriorEquipment:Electricity:Zone:BLOCKS-964_MULTIFAMILY_6_CORE,hourly; !- [J]
Output:Meter:Cumulative,InteriorEquipment:Electricity:Zone:BLOCKS-964_MULTIFAMILY_6_CORE,hourly; !- [J]
Output:Meter,InteriorEquipment:Electricity:Zone:BLOCKS-964_MULTIFAMILY_6_EAST PERIMETER,hourly; !- [J]
Output:Meter:Cumulative,InteriorEquipment:Electricity:Zone:BLOCKS-964_MULTIFAMILY_6_EAST PERIMETER,hourly; !- [J]
Output:Meter,InteriorEquipment:Electricity:Zone:BLOCKS-964_MULTIFAMILY_6_NORTH PERIMETER,hourly; !- [J]
Output:Meter:Cumulative,InteriorEquipment:Electricity:Zone:BLOCKS-964_MULTIFAMILY_6_NORTH PERIMETER,hourly; !- [J]
Output:Meter,InteriorEquipment:Electricity:Zone:BLOCKS-964_MULTIFAMILY_6_SOUTH PERIMETER,hourly; !- [J]
Output:Meter:Cumulative,InteriorEquipment:Electricity:Zone:BLOCKS-964_MULTIFAMILY_6_SOUTH PERIMETER,hourly; !- [J]
Output:Meter,InteriorEquipment:Electricity:Zone:BLOCKS-964_MULTIFAMILY_6_WEST PERIMETER,hourly; !- [J]
Output:Meter:Cumulative,InteriorEquipment:Electricity:Zone:BLOCKS-964_MULTIFAMILY_6_WEST PERIMETER,hourly; !- [J]
Output:Meter,InteriorEquipment:Electricity:Zone:BLOCKS-964_MULTIFAMILY_7_CORE,hourly; !- [J]
Output:Meter:Cumulative,InteriorEquipment:Electricity:Zone:BLOCKS-964_MULTIFAMILY_7_CORE,hourly; !- [J]
Output:Meter,InteriorEquipment:Electricity:Zone:BLOCKS-964_MULTIFAMILY_7_EAST PERIMETER,hourly; !- [J]
Output:Meter:Cumulative,InteriorEquipment:Electricity:Zone:BLOCKS-964_MULTIFAMILY_7_EAST PERIMETER,hourly; !- [J]
Output:Meter,InteriorEquipment:Electricity:Zone:BLOCKS-964_MULTIFAMILY_7_NORTH PERIMETER,hourly; !- [J]
Output:Meter:Cumulative,InteriorEquipment:Electricity:Zone:BLOCKS-964_MULTIFAMILY_7_NORTH PERIMETER,hourly; !- [J]
Output:Meter,InteriorEquipment:Electricity:Zone:BLOCKS-964_MULTIFAMILY_7_SOUTH PERIMETER,hourly; !- [J]
Output:Meter:Cumulative,InteriorEquipment:Electricity:Zone:BLOCKS-964_MULTIFAMILY_7_SOUTH PERIMETER,hourly; !- [J]
Output:Meter,InteriorEquipment:Electricity:Zone:BLOCKS-964_MULTIFAMILY_7_WEST PERIMETER,hourly; !- [J]
Output:Meter:Cumulative,InteriorEquipment:Electricity:Zone:BLOCKS-964_MULTIFAMILY_7_WEST PERIMETER,hourly; !- [J]
Output:Meter,InteriorEquipment:Electricity:Zone:BLOCKS-964_MULTIFAMILY_8_CORE,hourly; !- [J]
Output:Meter:Cumulative,InteriorEquipment:Electricity:Zone:BLOCKS-964_MULTIFAMILY_8_CORE,hourly; !- [J]
Output:Meter,InteriorEquipment:Electricity:Zone:BLOCKS-964_MULTIFAMILY_8_EAST PERIMETER,hourly; !- [J]
Output:Meter:Cumulative,InteriorEquipment:Electricity:Zone:BLOCKS-964_MULTIFAMILY_8_EAST PERIMETER,hourly; !- [J]
Output:Meter,InteriorEquipment:Electricity:Zone:BLOCKS-964_MULTIFAMILY_8_NORTH PERIMETER,hourly; !- [J]
Output:Meter:Cumulative,InteriorEquipment:Electricity:Zone:BLOCKS-964_MULTIFAMILY_8_NORTH PERIMETER,hourly; !- [J]
Output:Meter,InteriorEquipment:Electricity:Zone:BLOCKS-964_MULTIFAMILY_8_SOUTH PERIMETER,hourly; !- [J]
Output:Meter:Cumulative,InteriorEquipment:Electricity:Zone:BLOCKS-964_MULTIFAMILY_8_SOUTH PERIMETER,hourly; !- [J]
Output:Meter,InteriorEquipment:Electricity:Zone:BLOCKS-964_MULTIFAMILY_8_WEST PERIMETER,hourly; !- [J]
Output:Meter:Cumulative,InteriorEquipment:Electricity:Zone:BLOCKS-964_MULTIFAMILY_8_WEST PERIMETER,hourly; !- [J]
Output:Meter,InteriorEquipment:Electricity:Zone:BLOCKS-964_MULTIFAMILY_9_CORE,hourly; !- [J]
Output:Meter:Cumulative,InteriorEquipment:Electricity:Zone:BLOCKS-964_MULTIFAMILY_9_CORE,hourly; !- [J]
Output:Meter,InteriorEquipment:Electricity:Zone:BLOCKS-964_MULTIFAMILY_9_EAST PERIMETER,hourly; !- [J]
Output:Meter:Cumulative,InteriorEquipment:Electricity:Zone:BLOCKS-964_MULTIFAMILY_9_EAST PERIMETER,hourly; !- [J]
Output:Meter,InteriorEquipment:Electricity:Zone:BLOCKS-964_MULTIFAMILY_9_NORTH PERIMETER,hourly; !- [J]
Output:Meter:Cumulative,InteriorEquipment:Electricity:Zone:BLOCKS-964_MULTIFAMILY_9_NORTH PERIMETER,hourly; !- [J]
Output:Meter,InteriorEquipment:Electricity:Zone:BLOCKS-964_MULTIFAMILY_9_SOUTH PERIMETER,hourly; !- [J]
Output:Meter:Cumulative,InteriorEquipment:Electricity:Zone:BLOCKS-964_MULTIFAMILY_9_SOUTH PERIMETER,hourly; !- [J]
Output:Meter,InteriorEquipment:Electricity:Zone:BLOCKS-964_MULTIFAMILY_9_WEST PERIMETER,hourly; !- [J]
Output:Meter:Cumulative,InteriorEquipment:Electricity:Zone:BLOCKS-964_MULTIFAMILY_9_WEST PERIMETER,hourly; !- [J]
Output:Meter,PlantLoopHeatingDemand:Facility,hourly; !- [J]
Output:Meter:Cumulative,PlantLoopHeatingDemand:Facility,hourly; !- [J]
Output:Meter,PlantLoopHeatingDemand:Plant,hourly; !- [J]
Output:Meter:Cumulative,PlantLoopHeatingDemand:Plant,hourly; !- [J]
Output:Meter,WaterSystems:PlantLoopHeatingDemand,hourly; !- [J]
Output:Meter:Cumulative,WaterSystems:PlantLoopHeatingDemand,hourly; !- [J]
Output:Meter,General:WaterSystems:PlantLoopHeatingDemand,hourly; !- [J]
Output:Meter:Cumulative,General:WaterSystems:PlantLoopHeatingDemand,hourly; !- [J]
Output:Meter,Gas:Facility,hourly; !- [J]
Output:Meter:Cumulative,Gas:Facility,hourly; !- [J]
Output:Meter,Gas:Plant,hourly; !- [J]
Output:Meter:Cumulative,Gas:Plant,hourly; !- [J]
Output:Meter,WaterSystems:Gas,hourly; !- [J]
Output:Meter:Cumulative,WaterSystems:Gas,hourly; !- [J]
Output:Meter,General:WaterSystems:Gas,hourly; !- [J]
Output:Meter:Cumulative,General:WaterSystems:Gas,hourly; !- [J]
Output:Meter,Water:Facility,hourly; !- [m3]
Output:Meter:Cumulative,Water:Facility,hourly; !- [m3]
Output:Meter,Water:Plant,hourly; !- [m3]
Output:Meter:Cumulative,Water:Plant,hourly; !- [m3]
Output:Meter,WaterSystems:Water,hourly; !- [m3]
Output:Meter:Cumulative,WaterSystems:Water,hourly; !- [m3]
Output:Meter,General:WaterSystems:Water,hourly; !- [m3]
Output:Meter:Cumulative,General:WaterSystems:Water,hourly; !- [m3]
Output:Meter,MainsWater:Facility,hourly; !- [m3]
Output:Meter:Cumulative,MainsWater:Facility,hourly; !- [m3]
Output:Meter,MainsWater:Plant,hourly; !- [m3]
Output:Meter:Cumulative,MainsWater:Plant,hourly; !- [m3]
Output:Meter,WaterSystems:MainsWater,hourly; !- [m3]
Output:Meter:Cumulative,WaterSystems:MainsWater,hourly; !- [m3]
Output:Meter,General:WaterSystems:MainsWater,hourly; !- [m3]
Output:Meter:Cumulative,General:WaterSystems:MainsWater,hourly; !- [m3]
Output:Meter,EnergyTransfer:Facility,hourly; !- [J]
Output:Meter:Cumulative,EnergyTransfer:Facility,hourly; !- [J]
Output:Meter,EnergyTransfer:Building,hourly; !- [J]
Output:Meter:Cumulative,EnergyTransfer:Building,hourly; !- [J]
Output:Meter,EnergyTransfer:Zone:BLOCKS-964_MULTIFAMILY_10_CORE,hourly; !- [J]
Output:Meter:Cumulative,EnergyTransfer:Zone:BLOCKS-964_MULTIFAMILY_10_CORE,hourly; !- [J]
Output:Meter,Heating:EnergyTransfer,hourly; !- [J]
Output:Meter:Cumulative,Heating:EnergyTransfer,hourly; !- [J]
Output:Meter,Heating:EnergyTransfer:Zone:BLOCKS-964_MULTIFAMILY_10_CORE,hourly; !- [J]
Output:Meter:Cumulative,Heating:EnergyTransfer:Zone:BLOCKS-964_MULTIFAMILY_10_CORE,hourly; !- [J]
Output:Meter,Cooling:EnergyTransfer,hourly; !- [J]
Output:Meter:Cumulative,Cooling:EnergyTransfer,hourly; !- [J]
Output:Meter,Cooling:EnergyTransfer:Zone:BLOCKS-964_MULTIFAMILY_10_CORE,hourly; !- [J]
Output:Meter:Cumulative,Cooling:EnergyTransfer:Zone:BLOCKS-964_MULTIFAMILY_10_CORE,hourly; !- [J]
Output:Meter,EnergyTransfer:Zone:BLOCKS-964_MULTIFAMILY_10_EAST PERIMETER,hourly; !- [J]
Output:Meter:Cumulative,EnergyTransfer:Zone:BLOCKS-964_MULTIFAMILY_10_EAST PERIMETER,hourly; !- [J]
Output:Meter,Heating:EnergyTransfer:Zone:BLOCKS-964_MULTIFAMILY_10_EAST PERIMETER,hourly; !- [J]
Output:Meter:Cumulative,Heating:EnergyTransfer:Zone:BLOCKS-964_MULTIFAMILY_10_EAST PERIMETER,hourly; !- [J]
Output:Meter,Cooling:EnergyTransfer:Zone:BLOCKS-964_MULTIFAMILY_10_EAST PERIMETER,hourly; !- [J]
Output:Meter:Cumulative,Cooling:EnergyTransfer:Zone:BLOCKS-964_MULTIFAMILY_10_EAST PERIMETER,hourly; !- [J]
Output:Meter,EnergyTransfer:Zone:BLOCKS-964_MULTIFAMILY_10_NORTH PERIMETER,hourly; !- [J]
Output:Meter:Cumulative,EnergyTransfer:Zone:BLOCKS-964_MULTIFAMILY_10_NORTH PERIMETER,hourly; !- [J]
Output:Meter,Heating:EnergyTransfer:Zone:BLOCKS-964_MULTIFAMILY_10_NORTH PERIMETER,hourly; !- [J]
Output:Meter:Cumulative,Heating:EnergyTransfer:Zone:BLOCKS-964_MULTIFAMILY_10_NORTH PERIMETER,hourly; !- [J]
Output:Meter,Cooling:EnergyTransfer:Zone:BLOCKS-964_MULTIFAMILY_10_NORTH PERIMETER,hourly; !- [J]
Output:Meter:Cumulative,Cooling:EnergyTransfer:Zone:BLOCKS-964_MULTIFAMILY_10_NORTH PERIMETER,hourly; !- [J]
Output:Meter,EnergyTransfer:Zone:BLOCKS-964_MULTIFAMILY_10_SOUTH PERIMETER,hourly; !- [J]
Output:Meter:Cumulative,EnergyTransfer:Zone:BLOCKS-964_MULTIFAMILY_10_SOUTH PERIMETER,hourly; !- [J]
Output:Meter,Heating:EnergyTransfer:Zone:BLOCKS-964_MULTIFAMILY_10_SOUTH PERIMETER,hourly; !- [J]
Output:Meter:Cumulative,Heating:EnergyTransfer:Zone:BLOCKS-964_MULTIFAMILY_10_SOUTH PERIMETER,hourly; !- [J]
Output:Meter,Cooling:EnergyTransfer:Zone:BLOCKS-964_MULTIFAMILY_10_SOUTH PERIMETER,hourly; !- [J]
Output:Meter:Cumulative,Cooling:EnergyTransfer:Zone:BLOCKS-964_MULTIFAMILY_10_SOUTH PERIMETER,hourly; !- [J]
Output:Meter,EnergyTransfer:Zone:BLOCKS-964_MULTIFAMILY_10_WEST PERIMETER,hourly; !- [J]
Output:Meter:Cumulative,EnergyTransfer:Zone:BLOCKS-964_MULTIFAMILY_10_WEST PERIMETER,hourly; !- [J]
Output:Meter,Heating:EnergyTransfer:Zone:BLOCKS-964_MULTIFAMILY_10_WEST PERIMETER,hourly; !- [J]
Output:Meter:Cumulative,Heating:EnergyTransfer:Zone:BLOCKS-964_MULTIFAMILY_10_WEST PERIMETER,hourly; !- [J]
Output:Meter,Cooling:EnergyTransfer:Zone:BLOCKS-964_MULTIFAMILY_10_WEST PERIMETER,hourly; !- [J]
Output:Meter:Cumulative,Cooling:EnergyTransfer:Zone:BLOCKS-964_MULTIFAMILY_10_WEST PERIMETER,hourly; !- [J]
Output:Meter,EnergyTransfer:Zone:BLOCKS-964_MULTIFAMILY_1_CORE,hourly; !- [J]
Output:Meter:Cumulative,EnergyTransfer:Zone:BLOCKS-964_MULTIFAMILY_1_CORE,hourly; !- [J]
Output:Meter,Heating:EnergyTransfer:Zone:BLOCKS-964_MULTIFAMILY_1_CORE,hourly; !- [J]
Output:Meter:Cumulative,Heating:EnergyTransfer:Zone:BLOCKS-964_MULTIFAMILY_1_CORE,hourly; !- [J]
Output:Meter,Cooling:EnergyTransfer:Zone:BLOCKS-964_MULTIFAMILY_1_CORE,hourly; !- [J]
Output:Meter:Cumulative,Cooling:EnergyTransfer:Zone:BLOCKS-964_MULTIFAMILY_1_CORE,hourly; !- [J]
Output:Meter,EnergyTransfer:Zone:BLOCKS-964_MULTIFAMILY_1_EAST PERIMETER,hourly; !- [J]
Output:Meter:Cumulative,EnergyTransfer:Zone:BLOCKS-964_MULTIFAMILY_1_EAST PERIMETER,hourly; !- [J]
Output:Meter,Heating:EnergyTransfer:Zone:BLOCKS-964_MULTIFAMILY_1_EAST PERIMETER,hourly; !- [J]
Output:Meter:Cumulative,Heating:EnergyTransfer:Zone:BLOCKS-964_MULTIFAMILY_1_EAST PERIMETER,hourly; !- [J]
Output:Meter,Cooling:EnergyTransfer:Zone:BLOCKS-964_MULTIFAMILY_1_EAST PERIMETER,hourly; !- [J]
Output:Meter:Cumulative,Cooling:EnergyTransfer:Zone:BLOCKS-964_MULTIFAMILY_1_EAST PERIMETER,hourly; !- [J]
Output:Meter,EnergyTransfer:Zone:BLOCKS-964_MULTIFAMILY_1_NORTH PERIMETER,hourly; !- [J]
Output:Meter:Cumulative,EnergyTransfer:Zone:BLOCKS-964_MULTIFAMILY_1_NORTH PERIMETER,hourly; !- [J]
Output:Meter,Heating:EnergyTransfer:Zone:BLOCKS-964_MULTIFAMILY_1_NORTH PERIMETER,hourly; !- [J]
Output:Meter:Cumulative,Heating:EnergyTransfer:Zone:BLOCKS-964_MULTIFAMILY_1_NORTH PERIMETER,hourly; !- [J]
Output:Meter,Cooling:EnergyTransfer:Zone:BLOCKS-964_MULTIFAMILY_1_NORTH PERIMETER,hourly; !- [J]
Output:Meter:Cumulative,Cooling:EnergyTransfer:Zone:BLOCKS-964_MULTIFAMILY_1_NORTH PERIMETER,hourly; !- [J]
Output:Meter,EnergyTransfer:Zone:BLOCKS-964_MULTIFAMILY_1_SOUTH PERIMETER,hourly; !- [J]
Output:Meter:Cumulative,EnergyTransfer:Zone:BLOCKS-964_MULTIFAMILY_1_SOUTH PERIMETER,hourly; !- [J]
Output:Meter,Heating:EnergyTransfer:Zone:BLOCKS-964_MULTIFAMILY_1_SOUTH PERIMETER,hourly; !- [J]
Output:Meter:Cumulative,Heating:EnergyTransfer:Zone:BLOCKS-964_MULTIFAMILY_1_SOUTH PERIMETER,hourly; !- [J]
Output:Meter,Cooling:EnergyTransfer:Zone:BLOCKS-964_MULTIFAMILY_1_SOUTH PERIMETER,hourly; !- [J]
Output:Meter:Cumulative,Cooling:EnergyTransfer:Zone:BLOCKS-964_MULTIFAMILY_1_SOUTH PERIMETER,hourly; !- [J]
Output:Meter,EnergyTransfer:Zone:BLOCKS-964_MULTIFAMILY_1_WEST PERIMETER,hourly; !- [J]
Output:Meter:Cumulative,EnergyTransfer:Zone:BLOCKS-964_MULTIFAMILY_1_WEST PERIMETER,hourly; !- [J]
Output:Meter,Heating:EnergyTransfer:Zone:BLOCKS-964_MULTIFAMILY_1_WEST PERIMETER,hourly; !- [J]
Output:Meter:Cumulative,Heating:EnergyTransfer:Zone:BLOCKS-964_MULTIFAMILY_1_WEST PERIMETER,hourly; !- [J]
Output:Meter,Cooling:EnergyTransfer:Zone:BLOCKS-964_MULTIFAMILY_1_WEST PERIMETER,hourly; !- [J]
Output:Meter:Cumulative,Cooling:EnergyTransfer:Zone:BLOCKS-964_MULTIFAMILY_1_WEST PERIMETER,hourly; !- [J]
Output:Meter,EnergyTransfer:Zone:BLOCKS-964_MULTIFAMILY_2_CORE,hourly; !- [J]
Output:Meter:Cumulative,EnergyTransfer:Zone:BLOCKS-964_MULTIFAMILY_2_CORE,hourly; !- [J]
Output:Meter,Heating:EnergyTransfer:Zone:BLOCKS-964_MULTIFAMILY_2_CORE,hourly; !- [J]
Output:Meter:Cumulative,Heating:EnergyTransfer:Zone:BLOCKS-964_MULTIFAMILY_2_CORE,hourly; !- [J]
Output:Meter,Cooling:EnergyTransfer:Zone:BLOCKS-964_MULTIFAMILY_2_CORE,hourly; !- [J]
Output:Meter:Cumulative,Cooling:EnergyTransfer:Zone:BLOCKS-964_MULTIFAMILY_2_CORE,hourly; !- [J]
Output:Meter,EnergyTransfer:Zone:BLOCKS-964_MULTIFAMILY_2_EAST PERIMETER,hourly; !- [J]
Output:Meter:Cumulative,EnergyTransfer:Zone:BLOCKS-964_MULTIFAMILY_2_EAST PERIMETER,hourly; !- [J]
Output:Meter,Heating:EnergyTransfer:Zone:BLOCKS-964_MULTIFAMILY_2_EAST PERIMETER,hourly; !- [J]
Output:Meter:Cumulative,Heating:EnergyTransfer:Zone:BLOCKS-964_MULTIFAMILY_2_EAST PERIMETER,hourly; !- [J]
Output:Meter,Cooling:EnergyTransfer:Zone:BLOCKS-964_MULTIFAMILY_2_EAST PERIMETER,hourly; !- [J]
Output:Meter:Cumulative,Cooling:EnergyTransfer:Zone:BLOCKS-964_MULTIFAMILY_2_EAST PERIMETER,hourly; !- [J]
Output:Meter,EnergyTransfer:Zone:BLOCKS-964_MULTIFAMILY_2_NORTH PERIMETER,hourly; !- [J]
Output:Meter:Cumulative,EnergyTransfer:Zone:BLOCKS-964_MULTIFAMILY_2_NORTH PERIMETER,hourly; !- [J]
Output:Meter,Heating:EnergyTransfer:Zone:BLOCKS-964_MULTIFAMILY_2_NORTH PERIMETER,hourly; !- [J]
Output:Meter:Cumulative,Heating:EnergyTransfer:Zone:BLOCKS-964_MULTIFAMILY_2_NORTH PERIMETER,hourly; !- [J]
Output:Meter,Cooling:EnergyTransfer:Zone:BLOCKS-964_MULTIFAMILY_2_NORTH PERIMETER,hourly; !- [J]
Output:Meter:Cumulative,Cooling:EnergyTransfer:Zone:BLOCKS-964_MULTIFAMILY_2_NORTH PERIMETER,hourly; !- [J]
Output:Meter,EnergyTransfer:Zone:BLOCKS-964_MULTIFAMILY_2_SOUTH PERIMETER,hourly; !- [J]
Output:Meter:Cumulative,EnergyTransfer:Zone:BLOCKS-964_MULTIFAMILY_2_SOUTH PERIMETER,hourly; !- [J]
Output:Meter,Heating:EnergyTransfer:Zone:BLOCKS-964_MULTIFAMILY_2_SOUTH PERIMETER,hourly; !- [J]
Output:Meter:Cumulative,Heating:EnergyTransfer:Zone:BLOCKS-964_MULTIFAMILY_2_SOUTH PERIMETER,hourly; !- [J]
Output:Meter,Cooling:EnergyTransfer:Zone:BLOCKS-964_MULTIFAMILY_2_SOUTH PERIMETER,hourly; !- [J]
Output:Meter:Cumulative,Cooling:EnergyTransfer:Zone:BLOCKS-964_MULTIFAMILY_2_SOUTH PERIMETER,hourly; !- [J]
Output:Meter,EnergyTransfer:Zone:BLOCKS-964_MULTIFAMILY_2_WEST PERIMETER,hourly; !- [J]
Output:Meter:Cumulative,EnergyTransfer:Zone:BLOCKS-964_MULTIFAMILY_2_WEST PERIMETER,hourly; !- [J]
Output:Meter,Heating:EnergyTransfer:Zone:BLOCKS-964_MULTIFAMILY_2_WEST PERIMETER,hourly; !- [J]
Output:Meter:Cumulative,Heating:EnergyTransfer:Zone:BLOCKS-964_MULTIFAMILY_2_WEST PERIMETER,hourly; !- [J]
Output:Meter,Cooling:EnergyTransfer:Zone:BLOCKS-964_MULTIFAMILY_2_WEST PERIMETER,hourly; !- [J]
Output:Meter:Cumulative,Cooling:EnergyTransfer:Zone:BLOCKS-964_MULTIFAMILY_2_WEST PERIMETER,hourly; !- [J]
Output:Meter,EnergyTransfer:Zone:BLOCKS-964_MULTIFAMILY_3_CORE,hourly; !- [J]
Output:Meter:Cumulative,EnergyTransfer:Zone:BLOCKS-964_MULTIFAMILY_3_CORE,hourly; !- [J]
Output:Meter,Heating:EnergyTransfer:Zone:BLOCKS-964_MULTIFAMILY_3_CORE,hourly; !- [J]
Output:Meter:Cumulative,Heating:EnergyTransfer:Zone:BLOCKS-964_MULTIFAMILY_3_CORE,hourly; !- [J]
Output:Meter,Cooling:EnergyTransfer:Zone:BLOCKS-964_MULTIFAMILY_3_CORE,hourly; !- [J]
Output:Meter:Cumulative,Cooling:EnergyTransfer:Zone:BLOCKS-964_MULTIFAMILY_3_CORE,hourly; !- [J]
Output:Meter,EnergyTransfer:Zone:BLOCKS-964_MULTIFAMILY_3_EAST PERIMETER,hourly; !- [J]
Output:Meter:Cumulative,EnergyTransfer:Zone:BLOCKS-964_MULTIFAMILY_3_EAST PERIMETER,hourly; !- [J]
Output:Meter,Heating:EnergyTransfer:Zone:BLOCKS-964_MULTIFAMILY_3_EAST PERIMETER,hourly; !- [J]
Output:Meter:Cumulative,Heating:EnergyTransfer:Zone:BLOCKS-964_MULTIFAMILY_3_EAST PERIMETER,hourly; !- [J]
Output:Meter,Cooling:EnergyTransfer:Zone:BLOCKS-964_MULTIFAMILY_3_EAST PERIMETER,hourly; !- [J]
Output:Meter:Cumulative,Cooling:EnergyTransfer:Zone:BLOCKS-964_MULTIFAMILY_3_EAST PERIMETER,hourly; !- [J]
Output:Meter,EnergyTransfer:Zone:BLOCKS-964_MULTIFAMILY_3_NORTH PERIMETER,hourly; !- [J]
Output:Meter:Cumulative,EnergyTransfer:Zone:BLOCKS-964_MULTIFAMILY_3_NORTH PERIMETER,hourly; !- [J]
Output:Meter,Heating:EnergyTransfer:Zone:BLOCKS-964_MULTIFAMILY_3_NORTH PERIMETER,hourly; !- [J]
Output:Meter:Cumulative,Heating:EnergyTransfer:Zone:BLOCKS-964_MULTIFAMILY_3_NORTH PERIMETER,hourly; !- [J]
Output:Meter,Cooling:EnergyTransfer:Zone:BLOCKS-964_MULTIFAMILY_3_NORTH PERIMETER,hourly; !- [J]
Output:Meter:Cumulative,Cooling:EnergyTransfer:Zone:BLOCKS-964_MULTIFAMILY_3_NORTH PERIMETER,hourly; !- [J]
Output:Meter,EnergyTransfer:Zone:BLOCKS-964_MULTIFAMILY_3_SOUTH PERIMETER,hourly; !- [J]
Output:Meter:Cumulative,EnergyTransfer:Zone:BLOCKS-964_MULTIFAMILY_3_SOUTH PERIMETER,hourly; !- [J]
Output:Meter,Heating:EnergyTransfer:Zone:BLOCKS-964_MULTIFAMILY_3_SOUTH PERIMETER,hourly; !- [J]
Output:Meter:Cumulative,Heating:EnergyTransfer:Zone:BLOCKS-964_MULTIFAMILY_3_SOUTH PERIMETER,hourly; !- [J]
Output:Meter,Cooling:EnergyTransfer:Zone:BLOCKS-964_MULTIFAMILY_3_SOUTH PERIMETER,hourly; !- [J]
Output:Meter:Cumulative,Cooling:EnergyTransfer:Zone:BLOCKS-964_MULTIFAMILY_3_SOUTH PERIMETER,hourly; !- [J]
Output:Meter,EnergyTransfer:Zone:BLOCKS-964_MULTIFAMILY_3_WEST PERIMETER,hourly; !- [J]
Output:Meter:Cumulative,EnergyTransfer:Zone:BLOCKS-964_MULTIFAMILY_3_WEST PERIMETER,hourly; !- [J]
Output:Meter,Heating:EnergyTransfer:Zone:BLOCKS-964_MULTIFAMILY_3_WEST PERIMETER,hourly; !- [J]
Output:Meter:Cumulative,Heating:EnergyTransfer:Zone:BLOCKS-964_MULTIFAMILY_3_WEST PERIMETER,hourly; !- [J]
Output:Meter,Cooling:EnergyTransfer:Zone:BLOCKS-964_MULTIFAMILY_3_WEST PERIMETER,hourly; !- [J]
Output:Meter:Cumulative,Cooling:EnergyTransfer:Zone:BLOCKS-964_MULTIFAMILY_3_WEST PERIMETER,hourly; !- [J]
Output:Meter,EnergyTransfer:Zone:BLOCKS-964_MULTIFAMILY_4_CORE,hourly; !- [J]
Output:Meter:Cumulative,EnergyTransfer:Zone:BLOCKS-964_MULTIFAMILY_4_CORE,hourly; !- [J]
Output:Meter,Heating:EnergyTransfer:Zone:BLOCKS-964_MULTIFAMILY_4_CORE,hourly; !- [J]
Output:Meter:Cumulative,Heating:EnergyTransfer:Zone:BLOCKS-964_MULTIFAMILY_4_CORE,hourly; !- [J]
Output:Meter,Cooling:EnergyTransfer:Zone:BLOCKS-964_MULTIFAMILY_4_CORE,hourly; !- [J]
Output:Meter:Cumulative,Cooling:EnergyTransfer:Zone:BLOCKS-964_MULTIFAMILY_4_CORE,hourly; !- [J]
Output:Meter,EnergyTransfer:Zone:BLOCKS-964_MULTIFAMILY_4_EAST PERIMETER,hourly; !- [J]
Output:Meter:Cumulative,EnergyTransfer:Zone:BLOCKS-964_MULTIFAMILY_4_EAST PERIMETER,hourly; !- [J]
Output:Meter,Heating:EnergyTransfer:Zone:BLOCKS-964_MULTIFAMILY_4_EAST PERIMETER,hourly; !- [J]
Output:Meter:Cumulative,Heating:EnergyTransfer:Zone:BLOCKS-964_MULTIFAMILY_4_EAST PERIMETER,hourly; !- [J]
Output:Meter,Cooling:EnergyTransfer:Zone:BLOCKS-964_MULTIFAMILY_4_EAST PERIMETER,hourly; !- [J]
Output:Meter:Cumulative,Cooling:EnergyTransfer:Zone:BLOCKS-964_MULTIFAMILY_4_EAST PERIMETER,hourly; !- [J]
Output:Meter,EnergyTransfer:Zone:BLOCKS-964_MULTIFAMILY_4_NORTH PERIMETER,hourly; !- [J]
Output:Meter:Cumulative,EnergyTransfer:Zone:BLOCKS-964_MULTIFAMILY_4_NORTH PERIMETER,hourly; !- [J]
Output:Meter,Heating:EnergyTransfer:Zone:BLOCKS-964_MULTIFAMILY_4_NORTH PERIMETER,hourly; !- [J]
Output:Meter:Cumulative,Heating:EnergyTransfer:Zone:BLOCKS-964_MULTIFAMILY_4_NORTH PERIMETER,hourly; !- [J]
Output:Meter,Cooling:EnergyTransfer:Zone:BLOCKS-964_MULTIFAMILY_4_NORTH PERIMETER,hourly; !- [J]
Output:Meter:Cumulative,Cooling:EnergyTransfer:Zone:BLOCKS-964_MULTIFAMILY_4_NORTH PERIMETER,hourly; !- [J]
Output:Meter,EnergyTransfer:Zone:BLOCKS-964_MULTIFAMILY_4_SOUTH PERIMETER,hourly; !- [J]
Output:Meter:Cumulative,EnergyTransfer:Zone:BLOCKS-964_MULTIFAMILY_4_SOUTH PERIMETER,hourly; !- [J]
Output:Meter,Heating:EnergyTransfer:Zone:BLOCKS-964_MULTIFAMILY_4_SOUTH PERIMETER,hourly; !- [J]
Output:Meter:Cumulative,Heating:EnergyTransfer:Zone:BLOCKS-964_MULTIFAMILY_4_SOUTH PERIMETER,hourly; !- [J]
Output:Meter,Cooling:EnergyTransfer:Zone:BLOCKS-964_MULTIFAMILY_4_SOUTH PERIMETER,hourly; !- [J]
Output:Meter:Cumulative,Cooling:EnergyTransfer:Zone:BLOCKS-964_MULTIFAMILY_4_SOUTH PERIMETER,hourly; !- [J]
Output:Meter,EnergyTransfer:Zone:BLOCKS-964_MULTIFAMILY_4_WEST PERIMETER,hourly; !- [J]
Output:Meter:Cumulative,EnergyTransfer:Zone:BLOCKS-964_MULTIFAMILY_4_WEST PERIMETER,hourly; !- [J]
Output:Meter,Heating:EnergyTransfer:Zone:BLOCKS-964_MULTIFAMILY_4_WEST PERIMETER,hourly; !- [J]
Output:Meter:Cumulative,Heating:EnergyTransfer:Zone:BLOCKS-964_MULTIFAMILY_4_WEST PERIMETER,hourly; !- [J]
Output:Meter,Cooling:EnergyTransfer:Zone:BLOCKS-964_MULTIFAMILY_4_WEST PERIMETER,hourly; !- [J]
Output:Meter:Cumulative,Cooling:EnergyTransfer:Zone:BLOCKS-964_MULTIFAMILY_4_WEST PERIMETER,hourly; !- [J]
Output:Meter,EnergyTransfer:Zone:BLOCKS-964_MULTIFAMILY_5_CORE,hourly; !- [J]
Output:Meter:Cumulative,EnergyTransfer:Zone:BLOCKS-964_MULTIFAMILY_5_CORE,hourly; !- [J]
Output:Meter,Heating:EnergyTransfer:Zone:BLOCKS-964_MULTIFAMILY_5_CORE,hourly; !- [J]
Output:Meter:Cumulative,Heating:EnergyTransfer:Zone:BLOCKS-964_MULTIFAMILY_5_CORE,hourly; !- [J]
Output:Meter,Cooling:EnergyTransfer:Zone:BLOCKS-964_MULTIFAMILY_5_CORE,hourly; !- [J]
Output:Meter:Cumulative,Cooling:EnergyTransfer:Zone:BLOCKS-964_MULTIFAMILY_5_CORE,hourly; !- [J]
Output:Meter,EnergyTransfer:Zone:BLOCKS-964_MULTIFAMILY_5_EAST PERIMETER,hourly; !- [J]
Output:Meter:Cumulative,EnergyTransfer:Zone:BLOCKS-964_MULTIFAMILY_5_EAST PERIMETER,hourly; !- [J]
Output:Meter,Heating:EnergyTransfer:Zone:BLOCKS-964_MULTIFAMILY_5_EAST PERIMETER,hourly; !- [J]
Output:Meter:Cumulative,Heating:EnergyTransfer:Zone:BLOCKS-964_MULTIFAMILY_5_EAST PERIMETER,hourly; !- [J]
Output:Meter,Cooling:EnergyTransfer:Zone:BLOCKS-964_MULTIFAMILY_5_EAST PERIMETER,hourly; !- [J]
Output:Meter:Cumulative,Cooling:EnergyTransfer:Zone:BLOCKS-964_MULTIFAMILY_5_EAST PERIMETER,hourly; !- [J]
Output:Meter,EnergyTransfer:Zone:BLOCKS-964_MULTIFAMILY_5_NORTH PERIMETER,hourly; !- [J]
Output:Meter:Cumulative,EnergyTransfer:Zone:BLOCKS-964_MULTIFAMILY_5_NORTH PERIMETER,hourly; !- [J]
Output:Meter,Heating:EnergyTransfer:Zone:BLOCKS-964_MULTIFAMILY_5_NORTH PERIMETER,hourly; !- [J]
Output:Meter:Cumulative,Heating:EnergyTransfer:Zone:BLOCKS-964_MULTIFAMILY_5_NORTH PERIMETER,hourly; !- [J]
Output:Meter,Cooling:EnergyTransfer:Zone:BLOCKS-964_MULTIFAMILY_5_NORTH PERIMETER,hourly; !- [J]
Output:Meter:Cumulative,Cooling:EnergyTransfer:Zone:BLOCKS-964_MULTIFAMILY_5_NORTH PERIMETER,hourly; !- [J]
Output:Meter,EnergyTransfer:Zone:BLOCKS-964_MULTIFAMILY_5_SOUTH PERIMETER,hourly; !- [J]
Output:Meter:Cumulative,EnergyTransfer:Zone:BLOCKS-964_MULTIFAMILY_5_SOUTH PERIMETER,hourly; !- [J]
Output:Meter,Heating:EnergyTransfer:Zone:BLOCKS-964_MULTIFAMILY_5_SOUTH PERIMETER,hourly; !- [J]
Output:Meter:Cumulative,Heating:EnergyTransfer:Zone:BLOCKS-964_MULTIFAMILY_5_SOUTH PERIMETER,hourly; !- [J]
Output:Meter,Cooling:EnergyTransfer:Zone:BLOCKS-964_MULTIFAMILY_5_SOUTH PERIMETER,hourly; !- [J]
Output:Meter:Cumulative,Cooling:EnergyTransfer:Zone:BLOCKS-964_MULTIFAMILY_5_SOUTH PERIMETER,hourly; !- [J]
Output:Meter,EnergyTransfer:Zone:BLOCKS-964_MULTIFAMILY_5_WEST PERIMETER,hourly; !- [J]
Output:Meter:Cumulative,EnergyTransfer:Zone:BLOCKS-964_MULTIFAMILY_5_WEST PERIMETER,hourly; !- [J]
Output:Meter,Heating:EnergyTransfer:Zone:BLOCKS-964_MULTIFAMILY_5_WEST PERIMETER,hourly; !- [J]
Output:Meter:Cumulative,Heating:EnergyTransfer:Zone:BLOCKS-964_MULTIFAMILY_5_WEST PERIMETER,hourly; !- [J]
Output:Meter,Cooling:EnergyTransfer:Zone:BLOCKS-964_MULTIFAMILY_5_WEST PERIMETER,hourly; !- [J]
Output:Meter:Cumulative,Cooling:EnergyTransfer:Zone:BLOCKS-964_MULTIFAMILY_5_WEST PERIMETER,hourly; !- [J]
Output:Meter,EnergyTransfer:Zone:BLOCKS-964_MULTIFAMILY_6_CORE,hourly; !- [J]
Output:Meter:Cumulative,EnergyTransfer:Zone:BLOCKS-964_MULTIFAMILY_6_CORE,hourly; !- [J]
Output:Meter,Heating:EnergyTransfer:Zone:BLOCKS-964_MULTIFAMILY_6_CORE,hourly; !- [J]
Output:Meter:Cumulative,Heating:EnergyTransfer:Zone:BLOCKS-964_MULTIFAMILY_6_CORE,hourly; !- [J]
Output:Meter,Cooling:EnergyTransfer:Zone:BLOCKS-964_MULTIFAMILY_6_CORE,hourly; !- [J]
Output:Meter:Cumulative,Cooling:EnergyTransfer:Zone:BLOCKS-964_MULTIFAMILY_6_CORE,hourly; !- [J]
Output:Meter,EnergyTransfer:Zone:BLOCKS-964_MULTIFAMILY_6_EAST PERIMETER,hourly; !- [J]
Output:Meter:Cumulative,EnergyTransfer:Zone:BLOCKS-964_MULTIFAMILY_6_EAST PERIMETER,hourly; !- [J]
Output:Meter,Heating:EnergyTransfer:Zone:BLOCKS-964_MULTIFAMILY_6_EAST PERIMETER,hourly; !- [J]
Output:Meter:Cumulative,Heating:EnergyTransfer:Zone:BLOCKS-964_MULTIFAMILY_6_EAST PERIMETER,hourly; !- [J]
Output:Meter,Cooling:EnergyTransfer:Zone:BLOCKS-964_MULTIFAMILY_6_EAST PERIMETER,hourly; !- [J]
Output:Meter:Cumulative,Cooling:EnergyTransfer:Zone:BLOCKS-964_MULTIFAMILY_6_EAST PERIMETER,hourly; !- [J]
Output:Meter,EnergyTransfer:Zone:BLOCKS-964_MULTIFAMILY_6_NORTH PERIMETER,hourly; !- [J]
Output:Meter:Cumulative,EnergyTransfer:Zone:BLOCKS-964_MULTIFAMILY_6_NORTH PERIMETER,hourly; !- [J]
Output:Meter,Heating:EnergyTransfer:Zone:BLOCKS-964_MULTIFAMILY_6_NORTH PERIMETER,hourly; !- [J]
Output:Meter:Cumulative,Heating:EnergyTransfer:Zone:BLOCKS-964_MULTIFAMILY_6_NORTH PERIMETER,hourly; !- [J]
Output:Meter,Cooling:EnergyTransfer:Zone:BLOCKS-964_MULTIFAMILY_6_NORTH PERIMETER,hourly; !- [J]
Output:Meter:Cumulative,Cooling:EnergyTransfer:Zone:BLOCKS-964_MULTIFAMILY_6_NORTH PERIMETER,hourly; !- [J]
Output:Meter,EnergyTransfer:Zone:BLOCKS-964_MULTIFAMILY_6_SOUTH PERIMETER,hourly; !- [J]
Output:Meter:Cumulative,EnergyTransfer:Zone:BLOCKS-964_MULTIFAMILY_6_SOUTH PERIMETER,hourly; !- [J]
Output:Meter,Heating:EnergyTransfer:Zone:BLOCKS-964_MULTIFAMILY_6_SOUTH PERIMETER,hourly; !- [J]
Output:Meter:Cumulative,Heating:EnergyTransfer:Zone:BLOCKS-964_MULTIFAMILY_6_SOUTH PERIMETER,hourly; !- [J]
Output:Meter,Cooling:EnergyTransfer:Zone:BLOCKS-964_MULTIFAMILY_6_SOUTH PERIMETER,hourly; !- [J]
Output:Meter:Cumulative,Cooling:EnergyTransfer:Zone:BLOCKS-964_MULTIFAMILY_6_SOUTH PERIMETER,hourly; !- [J]
Output:Meter,EnergyTransfer:Zone:BLOCKS-964_MULTIFAMILY_6_WEST PERIMETER,hourly; !- [J]
Output:Meter:Cumulative,EnergyTransfer:Zone:BLOCKS-964_MULTIFAMILY_6_WEST PERIMETER,hourly; !- [J]
Output:Meter,Heating:EnergyTransfer:Zone:BLOCKS-964_MULTIFAMILY_6_WEST PERIMETER,hourly; !- [J]
Output:Meter:Cumulative,Heating:EnergyTransfer:Zone:BLOCKS-964_MULTIFAMILY_6_WEST PERIMETER,hourly; !- [J]
Output:Meter,Cooling:EnergyTransfer:Zone:BLOCKS-964_MULTIFAMILY_6_WEST PERIMETER,hourly; !- [J]
Output:Meter:Cumulative,Cooling:EnergyTransfer:Zone:BLOCKS-964_MULTIFAMILY_6_WEST PERIMETER,hourly; !- [J]
Output:Meter,EnergyTransfer:Zone:BLOCKS-964_MULTIFAMILY_7_CORE,hourly; !- [J]
Output:Meter:Cumulative,EnergyTransfer:Zone:BLOCKS-964_MULTIFAMILY_7_CORE,hourly; !- [J]
Output:Meter,Heating:EnergyTransfer:Zone:BLOCKS-964_MULTIFAMILY_7_CORE,hourly; !- [J]
Output:Meter:Cumulative,Heating:EnergyTransfer:Zone:BLOCKS-964_MULTIFAMILY_7_CORE,hourly; !- [J]
Output:Meter,Cooling:EnergyTransfer:Zone:BLOCKS-964_MULTIFAMILY_7_CORE,hourly; !- [J]
Output:Meter:Cumulative,Cooling:EnergyTransfer:Zone:BLOCKS-964_MULTIFAMILY_7_CORE,hourly; !- [J]
Output:Meter,EnergyTransfer:Zone:BLOCKS-964_MULTIFAMILY_7_EAST PERIMETER,hourly; !- [J]
Output:Meter:Cumulative,EnergyTransfer:Zone:BLOCKS-964_MULTIFAMILY_7_EAST PERIMETER,hourly; !- [J]
Output:Meter,Heating:EnergyTransfer:Zone:BLOCKS-964_MULTIFAMILY_7_EAST PERIMETER,hourly; !- [J]
Output:Meter:Cumulative,Heating:EnergyTransfer:Zone:BLOCKS-964_MULTIFAMILY_7_EAST PERIMETER,hourly; !- [J]
Output:Meter,Cooling:EnergyTransfer:Zone:BLOCKS-964_MULTIFAMILY_7_EAST PERIMETER,hourly; !- [J]
Output:Meter:Cumulative,Cooling:EnergyTransfer:Zone:BLOCKS-964_MULTIFAMILY_7_EAST PERIMETER,hourly; !- [J]
Output:Meter,EnergyTransfer:Zone:BLOCKS-964_MULTIFAMILY_7_NORTH PERIMETER,hourly; !- [J]
Output:Meter:Cumulative,EnergyTransfer:Zone:BLOCKS-964_MULTIFAMILY_7_NORTH PERIMETER,hourly; !- [J]
Output:Meter,Heating:EnergyTransfer:Zone:BLOCKS-964_MULTIFAMILY_7_NORTH PERIMETER,hourly; !- [J]
Output:Meter:Cumulative,Heating:EnergyTransfer:Zone:BLOCKS-964_MULTIFAMILY_7_NORTH PERIMETER,hourly; !- [J]
Output:Meter,Cooling:EnergyTransfer:Zone:BLOCKS-964_MULTIFAMILY_7_NORTH PERIMETER,hourly; !- [J]
Output:Meter:Cumulative,Cooling:EnergyTransfer:Zone:BLOCKS-964_MULTIFAMILY_7_NORTH PERIMETER,hourly; !- [J]
Output:Meter,EnergyTransfer:Zone:BLOCKS-964_MULTIFAMILY_7_SOUTH PERIMETER,hourly; !- [J]
Output:Meter:Cumulative,EnergyTransfer:Zone:BLOCKS-964_MULTIFAMILY_7_SOUTH PERIMETER,hourly; !- [J]
Output:Meter,Heating:EnergyTransfer:Zone:BLOCKS-964_MULTIFAMILY_7_SOUTH PERIMETER,hourly; !- [J]
Output:Meter:Cumulative,Heating:EnergyTransfer:Zone:BLOCKS-964_MULTIFAMILY_7_SOUTH PERIMETER,hourly; !- [J]
Output:Meter,Cooling:EnergyTransfer:Zone:BLOCKS-964_MULTIFAMILY_7_SOUTH PERIMETER,hourly; !- [J]
Output:Meter:Cumulative,Cooling:EnergyTransfer:Zone:BLOCKS-964_MULTIFAMILY_7_SOUTH PERIMETER,hourly; !- [J]
Output:Meter,EnergyTransfer:Zone:BLOCKS-964_MULTIFAMILY_7_WEST PERIMETER,hourly; !- [J]
Output:Meter:Cumulative,EnergyTransfer:Zone:BLOCKS-964_MULTIFAMILY_7_WEST PERIMETER,hourly; !- [J]
Output:Meter,Heating:EnergyTransfer:Zone:BLOCKS-964_MULTIFAMILY_7_WEST PERIMETER,hourly; !- [J]
Output:Meter:Cumulative,Heating:EnergyTransfer:Zone:BLOCKS-964_MULTIFAMILY_7_WEST PERIMETER,hourly; !- [J]
Output:Meter,Cooling:EnergyTransfer:Zone:BLOCKS-964_MULTIFAMILY_7_WEST PERIMETER,hourly; !- [J]
Output:Meter:Cumulative,Cooling:EnergyTransfer:Zone:BLOCKS-964_MULTIFAMILY_7_WEST PERIMETER,hourly; !- [J]
Output:Meter,EnergyTransfer:Zone:BLOCKS-964_MULTIFAMILY_8_CORE,hourly; !- [J]
Output:Meter:Cumulative,EnergyTransfer:Zone:BLOCKS-964_MULTIFAMILY_8_CORE,hourly; !- [J]
Output:Meter,Heating:EnergyTransfer:Zone:BLOCKS-964_MULTIFAMILY_8_CORE,hourly; !- [J]
Output:Meter:Cumulative,Heating:EnergyTransfer:Zone:BLOCKS-964_MULTIFAMILY_8_CORE,hourly; !- [J]
Output:Meter,Cooling:EnergyTransfer:Zone:BLOCKS-964_MULTIFAMILY_8_CORE,hourly; !- [J]
Output:Meter:Cumulative,Cooling:EnergyTransfer:Zone:BLOCKS-964_MULTIFAMILY_8_CORE,hourly; !- [J]
Output:Meter,EnergyTransfer:Zone:BLOCKS-964_MULTIFAMILY_8_EAST PERIMETER,hourly; !- [J]
Output:Meter:Cumulative,EnergyTransfer:Zone:BLOCKS-964_MULTIFAMILY_8_EAST PERIMETER,hourly; !- [J]
Output:Meter,Heating:EnergyTransfer:Zone:BLOCKS-964_MULTIFAMILY_8_EAST PERIMETER,hourly; !- [J]
Output:Meter:Cumulative,Heating:EnergyTransfer:Zone:BLOCKS-964_MULTIFAMILY_8_EAST PERIMETER,hourly; !- [J]
Output:Meter,Cooling:EnergyTransfer:Zone:BLOCKS-964_MULTIFAMILY_8_EAST PERIMETER,hourly; !- [J]
Output:Meter:Cumulative,Cooling:EnergyTransfer:Zone:BLOCKS-964_MULTIFAMILY_8_EAST PERIMETER,hourly; !- [J]
Output:Meter,EnergyTransfer:Zone:BLOCKS-964_MULTIFAMILY_8_NORTH PERIMETER,hourly; !- [J]
Output:Meter:Cumulative,EnergyTransfer:Zone:BLOCKS-964_MULTIFAMILY_8_NORTH PERIMETER,hourly; !- [J]
Output:Meter,Heating:EnergyTransfer:Zone:BLOCKS-964_MULTIFAMILY_8_NORTH PERIMETER,hourly; !- [J]
Output:Meter:Cumulative,Heating:EnergyTransfer:Zone:BLOCKS-964_MULTIFAMILY_8_NORTH PERIMETER,hourly; !- [J]
Output:Meter,Cooling:EnergyTransfer:Zone:BLOCKS-964_MULTIFAMILY_8_NORTH PERIMETER,hourly; !- [J]
Output:Meter:Cumulative,Cooling:EnergyTransfer:Zone:BLOCKS-964_MULTIFAMILY_8_NORTH PERIMETER,hourly; !- [J]
Output:Meter,EnergyTransfer:Zone:BLOCKS-964_MULTIFAMILY_8_SOUTH PERIMETER,hourly; !- [J]
Output:Meter:Cumulative,EnergyTransfer:Zone:BLOCKS-964_MULTIFAMILY_8_SOUTH PERIMETER,hourly; !- [J]
Output:Meter,Heating:EnergyTransfer:Zone:BLOCKS-964_MULTIFAMILY_8_SOUTH PERIMETER,hourly; !- [J]
Output:Meter:Cumulative,Heating:EnergyTransfer:Zone:BLOCKS-964_MULTIFAMILY_8_SOUTH PERIMETER,hourly; !- [J]
Output:Meter,Cooling:EnergyTransfer:Zone:BLOCKS-964_MULTIFAMILY_8_SOUTH PERIMETER,hourly; !- [J]
Output:Meter:Cumulative,Cooling:EnergyTransfer:Zone:BLOCKS-964_MULTIFAMILY_8_SOUTH PERIMETER,hourly; !- [J]
Output:Meter,EnergyTransfer:Zone:BLOCKS-964_MULTIFAMILY_8_WEST PERIMETER,hourly; !- [J]
Output:Meter:Cumulative,EnergyTransfer:Zone:BLOCKS-964_MULTIFAMILY_8_WEST PERIMETER,hourly; !- [J]
Output:Meter,Heating:EnergyTransfer:Zone:BLOCKS-964_MULTIFAMILY_8_WEST PERIMETER,hourly; !- [J]
Output:Meter:Cumulative,Heating:EnergyTransfer:Zone:BLOCKS-964_MULTIFAMILY_8_WEST PERIMETER,hourly; !- [J]
Output:Meter,Cooling:EnergyTransfer:Zone:BLOCKS-964_MULTIFAMILY_8_WEST PERIMETER,hourly; !- [J]
Output:Meter:Cumulative,Cooling:EnergyTransfer:Zone:BLOCKS-964_MULTIFAMILY_8_WEST PERIMETER,hourly; !- [J]
Output:Meter,EnergyTransfer:Zone:BLOCKS-964_MULTIFAMILY_9_CORE,hourly; !- [J]
Output:Meter:Cumulative,EnergyTransfer:Zone:BLOCKS-964_MULTIFAMILY_9_CORE,hourly; !- [J]
Output:Meter,Heating:EnergyTransfer:Zone:BLOCKS-964_MULTIFAMILY_9_CORE,hourly; !- [J]
Output:Meter:Cumulative,Heating:EnergyTransfer:Zone:BLOCKS-964_MULTIFAMILY_9_CORE,hourly; !- [J]
Output:Meter,Cooling:EnergyTransfer:Zone:BLOCKS-964_MULTIFAMILY_9_CORE,hourly; !- [J]
Output:Meter:Cumulative,Cooling:EnergyTransfer:Zone:BLOCKS-964_MULTIFAMILY_9_CORE,hourly; !- [J]
Output:Meter,EnergyTransfer:Zone:BLOCKS-964_MULTIFAMILY_9_EAST PERIMETER,hourly; !- [J]
Output:Meter:Cumulative,EnergyTransfer:Zone:BLOCKS-964_MULTIFAMILY_9_EAST PERIMETER,hourly; !- [J]
Output:Meter,Heating:EnergyTransfer:Zone:BLOCKS-964_MULTIFAMILY_9_EAST PERIMETER,hourly; !- [J]
Output:Meter:Cumulative,Heating:EnergyTransfer:Zone:BLOCKS-964_MULTIFAMILY_9_EAST PERIMETER,hourly; !- [J]
Output:Meter,Cooling:EnergyTransfer:Zone:BLOCKS-964_MULTIFAMILY_9_EAST PERIMETER,hourly; !- [J]
Output:Meter:Cumulative,Cooling:EnergyTransfer:Zone:BLOCKS-964_MULTIFAMILY_9_EAST PERIMETER,hourly; !- [J]
Output:Meter,EnergyTransfer:Zone:BLOCKS-964_MULTIFAMILY_9_NORTH PERIMETER,hourly; !- [J]
Output:Meter:Cumulative,EnergyTransfer:Zone:BLOCKS-964_MULTIFAMILY_9_NORTH PERIMETER,hourly; !- [J]
Output:Meter,Heating:EnergyTransfer:Zone:BLOCKS-964_MULTIFAMILY_9_NORTH PERIMETER,hourly; !- [J]
Output:Meter:Cumulative,Heating:EnergyTransfer:Zone:BLOCKS-964_MULTIFAMILY_9_NORTH PERIMETER,hourly; !- [J]
Output:Meter,Cooling:EnergyTransfer:Zone:BLOCKS-964_MULTIFAMILY_9_NORTH PERIMETER,hourly; !- [J]
Output:Meter:Cumulative,Cooling:EnergyTransfer:Zone:BLOCKS-964_MULTIFAMILY_9_NORTH PERIMETER,hourly; !- [J]
Output:Meter,EnergyTransfer:Zone:BLOCKS-964_MULTIFAMILY_9_SOUTH PERIMETER,hourly; !- [J]
Output:Meter:Cumulative,EnergyTransfer:Zone:BLOCKS-964_MULTIFAMILY_9_SOUTH PERIMETER,hourly; !- [J]
Output:Meter,Heating:EnergyTransfer:Zone:BLOCKS-964_MULTIFAMILY_9_SOUTH PERIMETER,hourly; !- [J]
Output:Meter:Cumulative,Heating:EnergyTransfer:Zone:BLOCKS-964_MULTIFAMILY_9_SOUTH PERIMETER,hourly; !- [J]
Output:Meter,Cooling:EnergyTransfer:Zone:BLOCKS-964_MULTIFAMILY_9_SOUTH PERIMETER,hourly; !- [J]
Output:Meter:Cumulative,Cooling:EnergyTransfer:Zone:BLOCKS-964_MULTIFAMILY_9_SOUTH PERIMETER,hourly; !- [J]
Output:Meter,EnergyTransfer:Zone:BLOCKS-964_MULTIFAMILY_9_WEST PERIMETER,hourly; !- [J]
Output:Meter:Cumulative,EnergyTransfer:Zone:BLOCKS-964_MULTIFAMILY_9_WEST PERIMETER,hourly; !- [J]
Output:Meter,Heating:EnergyTransfer:Zone:BLOCKS-964_MULTIFAMILY_9_WEST PERIMETER,hourly; !- [J]
Output:Meter:Cumulative,Heating:EnergyTransfer:Zone:BLOCKS-964_MULTIFAMILY_9_WEST PERIMETER,hourly; !- [J]
Output:Meter,Cooling:EnergyTransfer:Zone:BLOCKS-964_MULTIFAMILY_9_WEST PERIMETER,hourly; !- [J]
Output:Meter:Cumulative,Cooling:EnergyTransfer:Zone:BLOCKS-964_MULTIFAMILY_9_WEST PERIMETER,hourly; !- [J]
Output:Meter,EnergyTransfer:Plant,hourly; !- [J]
Output:Meter:Cumulative,EnergyTransfer:Plant,hourly; !- [J]
Output:Meter,WaterSystems:EnergyTransfer,hourly; !- [J]
Output:Meter:Cumulative,WaterSystems:EnergyTransfer,hourly; !- [J]
Output:Meter,General:WaterSystems:EnergyTransfer,hourly; !- [J]
Output:Meter:Cumulative,General:WaterSystems:EnergyTransfer,hourly; !- [J]
Output:Meter,ElectricityPurchased:Facility,hourly; !- [J]
Output:Meter:Cumulative,ElectricityPurchased:Facility,hourly; !- [J]
Output:Meter,ElectricityPurchased:Plant,hourly; !- [J]
Output:Meter:Cumulative,ElectricityPurchased:Plant,hourly; !- [J]
Output:Meter,Cogeneration:ElectricityPurchased,hourly; !- [J]
Output:Meter:Cumulative,Cogeneration:ElectricityPurchased,hourly; !- [J]
Output:Meter,ElectricitySurplusSold:Facility,hourly; !- [J]
Output:Meter:Cumulative,ElectricitySurplusSold:Facility,hourly; !- [J]
Output:Meter,ElectricitySurplusSold:Plant,hourly; !- [J]
Output:Meter:Cumulative,ElectricitySurplusSold:Plant,hourly; !- [J]
Output:Meter,Cogeneration:ElectricitySurplusSold,hourly; !- [J]
Output:Meter:Cumulative,Cogeneration:ElectricitySurplusSold,hourly; !- [J]
Output:Meter,ElectricityNet:Facility,hourly; !- [J]
Output:Meter:Cumulative,ElectricityNet:Facility,hourly; !- [J]
Output:Meter,ElectricityNet:Plant,hourly; !- [J]
Output:Meter:Cumulative,ElectricityNet:Plant,hourly; !- [J]
Output:Meter,Cogeneration:ElectricityNet,hourly; !- [J]
Output:Meter:Cumulative,Cogeneration:ElectricityNet,hourly; !- [J]
Output:Meter,Electricity:HVAC,hourly; !- [J]
Output:Meter:Cumulative,Electricity:HVAC,hourly; !- [J]
Output:Meter,Fans:Electricity,hourly; !- [J]
Output:Meter:Cumulative,Fans:Electricity,hourly; !- [J]
Output:Meter,General:Fans:Electricity,hourly; !- [J]
Output:Meter:Cumulative,General:Fans:Electricity,hourly; !- [J]
Output:Meter,EnergyTransfer:HVAC,hourly; !- [J]
Output:Meter:Cumulative,EnergyTransfer:HVAC,hourly; !- [J]
Output:Meter,CoolingCoils:EnergyTransfer,hourly; !- [J]
Output:Meter:Cumulative,CoolingCoils:EnergyTransfer,hourly; !- [J]
Output:Meter,Cooling:Electricity,hourly; !- [J]
Output:Meter:Cumulative,Cooling:Electricity,hourly; !- [J]
Output:Meter,HeatingCoils:EnergyTransfer,hourly; !- [J]
Output:Meter:Cumulative,HeatingCoils:EnergyTransfer,hourly; !- [J]
Output:Meter,Heating:Electricity,hourly; !- [J]
Output:Meter:Cumulative,Heating:Electricity,hourly; !- [J]
Output:Meter,Electricity:Plant,hourly; !- [J]
Output:Meter:Cumulative,Electricity:Plant,hourly; !- [J]
Output:Meter,Pumps:Electricity,hourly; !- [J]
Output:Meter:Cumulative,Pumps:Electricity,hourly; !- [J]
Output:Meter,Carbon Equivalent:Facility,hourly; !- [kg]
Output:Meter:Cumulative,Carbon Equivalent:Facility,hourly; !- [kg]
Output:Meter,CarbonEquivalentEmissions:Carbon Equivalent,hourly; !- [kg]
Output:Meter:Cumulative,CarbonEquivalentEmissions:Carbon Equivalent,hourly; !- [kg]
