Program Version,EnergyPlus, Version 8.9.0-497bb3e71c, YMD=2018.06.06 17:01
! This file shows details about the branches, nodes, and other
! elements of the flow connections.
! This file is intended for use in "debugging" potential problems
! that may also be detected by the program, but may be more easily
! identified by "eye".
! This file is also intended to support software which draws a
! schematic diagram of the HVAC system.
! ===============================================================
! #Nodes,<Number of Unique Nodes>
 #Nodes,665
! <Node>,<NodeNumber>,<Node Name>,<Node Fluid Type>,<# Times Node Referenced After Definition>
 Node,1,NODE 505,Air,4
 Node,2,NODE 487,Air,4
 Node,3,NODE 478,Air,4
 Node,4,NODE 496,Air,4
 Node,5,NODE 469,Air,4
 Node,6,NODE 100,Air,4
 Node,7,NODE 82,Air,4
 Node,8,NODE 73,Air,4
 Node,9,NODE 91,Air,4
 Node,10,NODE 64,Air,4
 Node,11,NODE 145,Air,4
 Node,12,NODE 127,Air,4
 Node,13,NODE 118,Air,4
 Node,14,NODE 136,Air,4
 Node,15,NODE 109,Air,4
 Node,16,NODE 190,Air,4
 Node,17,NODE 172,Air,4
 Node,18,NODE 163,Air,4
 Node,19,NODE 181,Air,4
 Node,20,NODE 154,Air,4
 Node,21,NODE 235,Air,4
 Node,22,NODE 217,Air,4
 Node,23,NODE 208,Air,4
 Node,24,NODE 226,Air,4
 Node,25,NODE 199,Air,4
 Node,26,NODE 280,Air,4
 Node,27,NODE 262,Air,4
 Node,28,NODE 253,Air,4
 Node,29,NODE 271,Air,4
 Node,30,NODE 244,Air,4
 Node,31,NODE 325,Air,4
 Node,32,NODE 307,Air,4
 Node,33,NODE 298,Air,4
 Node,34,NODE 316,Air,4
 Node,35,NODE 289,Air,4
 Node,36,NODE 370,Air,4
 Node,37,NODE 352,Air,4
 Node,38,NODE 343,Air,4
 Node,39,NODE 361,Air,4
 Node,40,NODE 334,Air,4
 Node,41,NODE 415,Air,4
 Node,42,NODE 397,Air,4
 Node,43,NODE 388,Air,4
 Node,44,NODE 406,Air,4
 Node,45,NODE 379,Air,4
 Node,46,NODE 460,Air,4
 Node,47,NODE 442,Air,4
 Node,48,NODE 433,Air,4
 Node,49,NODE 451,Air,4
 Node,50,NODE 424,Air,4
 Node,51,NODE 142,Air,7
 Node,52,NODE 143,Air,3
 Node,53,NODE 151,Air,7
 Node,54,NODE 152,Air,3
 Node,55,NODE 160,Air,7
 Node,56,NODE 161,Air,3
 Node,57,NODE 169,Air,7
 Node,58,NODE 170,Air,3
 Node,59,NODE 178,Air,7
 Node,60,NODE 179,Air,3
 Node,61,NODE 187,Air,7
 Node,62,NODE 188,Air,3
 Node,63,NODE 196,Air,7
 Node,64,NODE 197,Air,3
 Node,65,NODE 205,Air,7
 Node,66,NODE 206,Air,3
 Node,67,NODE 214,Air,7
 Node,68,NODE 215,Air,3
 Node,69,NODE 223,Air,7
 Node,70,NODE 224,Air,3
 Node,71,NODE 61,Air,7
 Node,72,NODE 62,Air,3
 Node,73,NODE 232,Air,7
 Node,74,NODE 233,Air,3
 Node,75,NODE 241,Air,7
 Node,76,NODE 242,Air,3
 Node,77,NODE 250,Air,7
 Node,78,NODE 251,Air,3
 Node,79,NODE 259,Air,7
 Node,80,NODE 260,Air,3
 Node,81,NODE 268,Air,7
 Node,82,NODE 269,Air,3
 Node,83,NODE 277,Air,7
 Node,84,NODE 278,Air,3
 Node,85,NODE 286,Air,7
 Node,86,NODE 287,Air,3
 Node,87,NODE 295,Air,7
 Node,88,NODE 296,Air,3
 Node,89,NODE 304,Air,7
 Node,90,NODE 305,Air,3
 Node,91,NODE 313,Air,7
 Node,92,NODE 314,Air,3
 Node,93,NODE 70,Air,7
 Node,94,NODE 71,Air,3
 Node,95,NODE 322,Air,7
 Node,96,NODE 323,Air,3
 Node,97,NODE 331,Air,7
 Node,98,NODE 332,Air,3
 Node,99,NODE 340,Air,7
 Node,100,NODE 341,Air,3
 Node,101,NODE 349,Air,7
 Node,102,NODE 350,Air,3
 Node,103,NODE 358,Air,7
 Node,104,NODE 359,Air,3
 Node,105,NODE 367,Air,7
 Node,106,NODE 368,Air,3
 Node,107,NODE 376,Air,7
 Node,108,NODE 377,Air,3
 Node,109,NODE 385,Air,7
 Node,110,NODE 386,Air,3
 Node,111,NODE 394,Air,7
 Node,112,NODE 395,Air,3
 Node,113,NODE 403,Air,7
 Node,114,NODE 404,Air,3
 Node,115,NODE 79,Air,7
 Node,116,NODE 80,Air,3
 Node,117,NODE 412,Air,7
 Node,118,NODE 413,Air,3
 Node,119,NODE 421,Air,7
 Node,120,NODE 422,Air,3
 Node,121,NODE 430,Air,7
 Node,122,NODE 431,Air,3
 Node,123,NODE 439,Air,7
 Node,124,NODE 440,Air,3
 Node,125,NODE 448,Air,7
 Node,126,NODE 449,Air,3
 Node,127,NODE 457,Air,7
 Node,128,NODE 458,Air,3
 Node,129,NODE 466,Air,7
 Node,130,NODE 467,Air,3
 Node,131,NODE 475,Air,7
 Node,132,NODE 476,Air,3
 Node,133,NODE 484,Air,7
 Node,134,NODE 485,Air,3
 Node,135,NODE 493,Air,7
 Node,136,NODE 494,Air,3
 Node,137,NODE 88,Air,7
 Node,138,NODE 89,Air,3
 Node,139,NODE 502,Air,7
 Node,140,NODE 503,Air,3
 Node,141,NODE 97,Air,7
 Node,142,NODE 98,Air,3
 Node,143,NODE 106,Air,7
 Node,144,NODE 107,Air,3
 Node,145,NODE 115,Air,7
 Node,146,NODE 116,Air,3
 Node,147,NODE 124,Air,7
 Node,148,NODE 125,Air,3
 Node,149,NODE 133,Air,7
 Node,150,NODE 134,Air,3
 Node,151,NODE 141,Air,3
 Node,152,NODE 148,Air,7
 Node,153,NODE 150,Air,3
 Node,154,NODE 157,Air,7
 Node,155,NODE 159,Air,3
 Node,156,NODE 166,Air,7
 Node,157,NODE 168,Air,3
 Node,158,NODE 175,Air,7
 Node,159,NODE 177,Air,3
 Node,160,NODE 184,Air,7
 Node,161,NODE 186,Air,3
 Node,162,NODE 193,Air,7
 Node,163,NODE 195,Air,3
 Node,164,NODE 202,Air,7
 Node,165,NODE 204,Air,3
 Node,166,NODE 211,Air,7
 Node,167,NODE 213,Air,3
 Node,168,NODE 220,Air,7
 Node,169,NODE 222,Air,3
 Node,170,NODE 229,Air,7
 Node,171,NODE 60,Air,3
 Node,172,NODE 67,Air,7
 Node,173,NODE 231,Air,3
 Node,174,NODE 238,Air,7
 Node,175,NODE 240,Air,3
 Node,176,NODE 247,Air,7
 Node,177,NODE 249,Air,3
 Node,178,NODE 256,Air,7
 Node,179,NODE 258,Air,3
 Node,180,NODE 265,Air,7
 Node,181,NODE 267,Air,3
 Node,182,NODE 274,Air,7
 Node,183,NODE 276,Air,3
 Node,184,NODE 283,Air,7
 Node,185,NODE 285,Air,3
 Node,186,NODE 292,Air,7
 Node,187,NODE 294,Air,3
 Node,188,NODE 301,Air,7
 Node,189,NODE 303,Air,3
 Node,190,NODE 310,Air,7
 Node,191,NODE 312,Air,3
 Node,192,NODE 319,Air,7
 Node,193,NODE 69,Air,3
 Node,194,NODE 76,Air,7
 Node,195,NODE 321,Air,3
 Node,196,NODE 328,Air,7
 Node,197,NODE 330,Air,3
 Node,198,NODE 337,Air,7
 Node,199,NODE 339,Air,3
 Node,200,NODE 346,Air,7
 Node,201,NODE 348,Air,3
 Node,202,NODE 355,Air,7
 Node,203,NODE 357,Air,3
 Node,204,NODE 364,Air,7
 Node,205,NODE 366,Air,3
 Node,206,NODE 373,Air,7
 Node,207,NODE 375,Air,3
 Node,208,NODE 382,Air,7
 Node,209,NODE 384,Air,3
 Node,210,NODE 391,Air,7
 Node,211,NODE 393,Air,3
 Node,212,NODE 400,Air,7
 Node,213,NODE 402,Air,3
 Node,214,NODE 409,Air,7
 Node,215,NODE 78,Air,3
 Node,216,NODE 85,Air,7
 Node,217,NODE 411,Air,3
 Node,218,NODE 418,Air,7
 Node,219,NODE 420,Air,3
 Node,220,NODE 427,Air,7
 Node,221,NODE 429,Air,3
 Node,222,NODE 436,Air,7
 Node,223,NODE 438,Air,3
 Node,224,NODE 445,Air,7
 Node,225,NODE 447,Air,3
 Node,226,NODE 454,Air,7
 Node,227,NODE 456,Air,3
 Node,228,NODE 463,Air,7
 Node,229,NODE 465,Air,3
 Node,230,NODE 472,Air,7
 Node,231,NODE 474,Air,3
 Node,232,NODE 481,Air,7
 Node,233,NODE 483,Air,3
 Node,234,NODE 490,Air,7
 Node,235,NODE 492,Air,3
 Node,236,NODE 499,Air,7
 Node,237,NODE 87,Air,3
 Node,238,NODE 94,Air,7
 Node,239,NODE 501,Air,3
 Node,240,NODE 508,Air,7
 Node,241,NODE 96,Air,3
 Node,242,NODE 103,Air,7
 Node,243,NODE 105,Air,3
 Node,244,NODE 112,Air,7
 Node,245,NODE 114,Air,3
 Node,246,NODE 121,Air,7
 Node,247,NODE 123,Air,3
 Node,248,NODE 130,Air,7
 Node,249,NODE 132,Air,3
 Node,250,NODE 139,Air,7
 Node,251,NODE 1,Water,2
 Node,252,NODE 7,Water,1
 Node,253,NODE 3,Water,1
 Node,254,NODE 8,Water,1
 Node,255,SWPLANT WATER_HEATERS-530 SUPPLY OUTLET PIPE NODE,Water,1
 Node,256,NODE 2,Water,4
 Node,257,NODE 4,Water,2
 Node,258,SWPLANT WATER_HEATERS-530 DEMAND INLET PIPE NODE,Water,1
 Node,259,NODE 6,Water,1
 Node,260,NODE 9,Water,1
 Node,261,SWPLANT WATER_HEATERS-530 DEMAND BYPASS PIPE INLET NODE,Water,1
 Node,262,SWPLANT WATER_HEATERS-530 DEMAND BYPASS PIPE OUTLET NODE,Water,1
 Node,263,SWPLANT WATER_HEATERS-530 DEMAND OUTLET PIPE NODE,Water,1
 Node,264,NODE 5,Water,2
 Node,265,NODE 59,Air,1
 Node,266,NODE 509,Air,1
 Node,267,NODE 57,Air,1
 Node,268,NODE 491,Air,1
 Node,269,NODE 56,Air,1
 Node,270,NODE 482,Air,1
 Node,271,NODE 58,Air,1
 Node,272,NODE 500,Air,1
 Node,273,NODE 55,Air,1
 Node,274,NODE 473,Air,1
 Node,275,NODE 14,Air,1
 Node,276,NODE 104,Air,1
 Node,277,NODE 12,Air,1
 Node,278,NODE 86,Air,1
 Node,279,NODE 11,Air,1
 Node,280,NODE 77,Air,1
 Node,281,NODE 13,Air,1
 Node,282,NODE 95,Air,1
 Node,283,NODE 10,Air,1
 Node,284,NODE 68,Air,1
 Node,285,NODE 19,Air,1
 Node,286,NODE 149,Air,1
 Node,287,NODE 17,Air,1
 Node,288,NODE 131,Air,1
 Node,289,NODE 16,Air,1
 Node,290,NODE 122,Air,1
 Node,291,NODE 18,Air,1
 Node,292,NODE 140,Air,1
 Node,293,NODE 15,Air,1
 Node,294,NODE 113,Air,1
 Node,295,NODE 24,Air,1
 Node,296,NODE 194,Air,1
 Node,297,NODE 22,Air,1
 Node,298,NODE 176,Air,1
 Node,299,NODE 21,Air,1
 Node,300,NODE 167,Air,1
 Node,301,NODE 23,Air,1
 Node,302,NODE 185,Air,1
 Node,303,NODE 20,Air,1
 Node,304,NODE 158,Air,1
 Node,305,NODE 29,Air,1
 Node,306,NODE 239,Air,1
 Node,307,NODE 27,Air,1
 Node,308,NODE 221,Air,1
 Node,309,NODE 26,Air,1
 Node,310,NODE 212,Air,1
 Node,311,NODE 28,Air,1
 Node,312,NODE 230,Air,1
 Node,313,NODE 25,Air,1
 Node,314,NODE 203,Air,1
 Node,315,NODE 34,Air,1
 Node,316,NODE 284,Air,1
 Node,317,NODE 32,Air,1
 Node,318,NODE 266,Air,1
 Node,319,NODE 31,Air,1
 Node,320,NODE 257,Air,1
 Node,321,NODE 33,Air,1
 Node,322,NODE 275,Air,1
 Node,323,NODE 30,Air,1
 Node,324,NODE 248,Air,1
 Node,325,NODE 39,Air,1
 Node,326,NODE 329,Air,1
 Node,327,NODE 37,Air,1
 Node,328,NODE 311,Air,1
 Node,329,NODE 36,Air,1
 Node,330,NODE 302,Air,1
 Node,331,NODE 38,Air,1
 Node,332,NODE 320,Air,1
 Node,333,NODE 35,Air,1
 Node,334,NODE 293,Air,1
 Node,335,NODE 44,Air,1
 Node,336,NODE 374,Air,1
 Node,337,NODE 42,Air,1
 Node,338,NODE 356,Air,1
 Node,339,NODE 41,Air,1
 Node,340,NODE 347,Air,1
 Node,341,NODE 43,Air,1
 Node,342,NODE 365,Air,1
 Node,343,NODE 40,Air,1
 Node,344,NODE 338,Air,1
 Node,345,NODE 49,Air,1
 Node,346,NODE 419,Air,1
 Node,347,NODE 47,Air,1
 Node,348,NODE 401,Air,1
 Node,349,NODE 46,Air,1
 Node,350,NODE 392,Air,1
 Node,351,NODE 48,Air,1
 Node,352,NODE 410,Air,1
 Node,353,NODE 45,Air,1
 Node,354,NODE 383,Air,1
 Node,355,NODE 54,Air,1
 Node,356,NODE 464,Air,1
 Node,357,NODE 52,Air,1
 Node,358,NODE 446,Air,1
 Node,359,NODE 51,Air,1
 Node,360,NODE 437,Air,1
 Node,361,NODE 53,Air,1
 Node,362,NODE 455,Air,1
 Node,363,NODE 50,Air,1
 Node,364,NODE 428,Air,1
 Node,365,NODE 144,Air,2
 Node,366,NODE 153,Air,2
 Node,367,NODE 162,Air,2
 Node,368,NODE 171,Air,2
 Node,369,NODE 180,Air,2
 Node,370,NODE 189,Air,2
 Node,371,NODE 198,Air,2
 Node,372,NODE 207,Air,2
 Node,373,NODE 216,Air,2
 Node,374,NODE 225,Air,2
 Node,375,NODE 63,Air,2
 Node,376,NODE 234,Air,2
 Node,377,NODE 243,Air,2
 Node,378,NODE 252,Air,2
 Node,379,NODE 261,Air,2
 Node,380,NODE 270,Air,2
 Node,381,NODE 279,Air,2
 Node,382,NODE 288,Air,2
 Node,383,NODE 297,Air,2
 Node,384,NODE 306,Air,2
 Node,385,NODE 315,Air,2
 Node,386,NODE 72,Air,2
 Node,387,NODE 324,Air,2
 Node,388,NODE 333,Air,2
 Node,389,NODE 342,Air,2
 Node,390,NODE 351,Air,2
 Node,391,NODE 360,Air,2
 Node,392,NODE 369,Air,2
 Node,393,NODE 378,Air,2
 Node,394,NODE 387,Air,2
 Node,395,NODE 396,Air,2
 Node,396,NODE 405,Air,2
 Node,397,NODE 81,Air,2
 Node,398,NODE 414,Air,2
 Node,399,NODE 423,Air,2
 Node,400,NODE 432,Air,2
 Node,401,NODE 441,Air,2
 Node,402,NODE 450,Air,2
 Node,403,NODE 459,Air,2
 Node,404,NODE 468,Air,2
 Node,405,NODE 477,Air,2
 Node,406,NODE 486,Air,2
 Node,407,NODE 495,Air,2
 Node,408,NODE 90,Air,2
 Node,409,NODE 504,Air,2
 Node,410,NODE 99,Air,2
 Node,411,NODE 108,Air,2
 Node,412,NODE 117,Air,2
 Node,413,NODE 126,Air,2
 Node,414,NODE 135,Air,2
 Node,415,NODE 146,Air,2
 Node,416,NODE 155,Air,2
 Node,417,NODE 164,Air,2
 Node,418,NODE 173,Air,2
 Node,419,NODE 182,Air,2
 Node,420,NODE 191,Air,2
 Node,421,NODE 200,Air,2
 Node,422,NODE 209,Air,2
 Node,423,NODE 218,Air,2
 Node,424,NODE 227,Air,2
 Node,425,NODE 65,Air,2
 Node,426,NODE 236,Air,2
 Node,427,NODE 245,Air,2
 Node,428,NODE 254,Air,2
 Node,429,NODE 263,Air,2
 Node,430,NODE 272,Air,2
 Node,431,NODE 281,Air,2
 Node,432,NODE 290,Air,2
 Node,433,NODE 299,Air,2
 Node,434,NODE 308,Air,2
 Node,435,NODE 317,Air,2
 Node,436,NODE 74,Air,2
 Node,437,NODE 326,Air,2
 Node,438,NODE 335,Air,2
 Node,439,NODE 344,Air,2
 Node,440,NODE 353,Air,2
 Node,441,NODE 362,Air,2
 Node,442,NODE 371,Air,2
 Node,443,NODE 380,Air,2
 Node,444,NODE 389,Air,2
 Node,445,NODE 398,Air,2
 Node,446,NODE 407,Air,2
 Node,447,NODE 83,Air,2
 Node,448,NODE 416,Air,2
 Node,449,NODE 425,Air,2
 Node,450,NODE 434,Air,2
 Node,451,NODE 443,Air,2
 Node,452,NODE 452,Air,2
 Node,453,NODE 461,Air,2
 Node,454,NODE 470,Air,2
 Node,455,NODE 479,Air,2
 Node,456,NODE 488,Air,2
 Node,457,NODE 497,Air,2
 Node,458,NODE 92,Air,2
 Node,459,NODE 506,Air,2
 Node,460,NODE 101,Air,2
 Node,461,NODE 110,Air,2
 Node,462,NODE 119,Air,2
 Node,463,NODE 128,Air,2
 Node,464,NODE 137,Air,2
 Node,465,MODEL OUTDOOR AIR NODE,Air,0
 Node,466,NODE 147,Air,1
 Node,467,NODE 156,Air,1
 Node,468,NODE 165,Air,1
 Node,469,NODE 174,Air,1
 Node,470,NODE 183,Air,1
 Node,471,NODE 192,Air,1
 Node,472,NODE 201,Air,1
 Node,473,NODE 210,Air,1
 Node,474,NODE 219,Air,1
 Node,475,NODE 228,Air,1
 Node,476,NODE 66,Air,1
 Node,477,NODE 237,Air,1
 Node,478,NODE 246,Air,1
 Node,479,NODE 255,Air,1
 Node,480,NODE 264,Air,1
 Node,481,NODE 273,Air,1
 Node,482,NODE 282,Air,1
 Node,483,NODE 291,Air,1
 Node,484,NODE 300,Air,1
 Node,485,NODE 309,Air,1
 Node,486,NODE 318,Air,1
 Node,487,NODE 75,Air,1
 Node,488,NODE 327,Air,1
 Node,489,NODE 336,Air,1
 Node,490,NODE 345,Air,1
 Node,491,NODE 354,Air,1
 Node,492,NODE 363,Air,1
 Node,493,NODE 372,Air,1
 Node,494,NODE 381,Air,1
 Node,495,NODE 390,Air,1
 Node,496,NODE 399,Air,1
 Node,497,NODE 408,Air,1
 Node,498,NODE 84,Air,1
 Node,499,NODE 417,Air,1
 Node,500,NODE 426,Air,1
 Node,501,NODE 435,Air,1
 Node,502,NODE 444,Air,1
 Node,503,NODE 453,Air,1
 Node,504,NODE 462,Air,1
 Node,505,NODE 471,Air,1
 Node,506,NODE 480,Air,1
 Node,507,NODE 489,Air,1
 Node,508,NODE 498,Air,1
 Node,509,NODE 93,Air,1
 Node,510,NODE 507,Air,1
 Node,511,NODE 102,Air,1
 Node,512,NODE 111,Air,1
 Node,513,NODE 120,Air,1
 Node,514,NODE 129,Air,1
 Node,515,NODE 138,Air,1
 Node,516,AIR LOOP HVAC UNITARY HEAT PUMP AIR TO AIR 10 FAN - COOLING COIL NODE,Air,1
 Node,517,AIR LOOP HVAC UNITARY HEAT PUMP AIR TO AIR 11 FAN - COOLING COIL NODE,Air,1
 Node,518,AIR LOOP HVAC UNITARY HEAT PUMP AIR TO AIR 12 FAN - COOLING COIL NODE,Air,1
 Node,519,AIR LOOP HVAC UNITARY HEAT PUMP AIR TO AIR 13 FAN - COOLING COIL NODE,Air,1
 Node,520,AIR LOOP HVAC UNITARY HEAT PUMP AIR TO AIR 14 FAN - COOLING COIL NODE,Air,1
 Node,521,AIR LOOP HVAC UNITARY HEAT PUMP AIR TO AIR 15 FAN - COOLING COIL NODE,Air,1
 Node,522,AIR LOOP HVAC UNITARY HEAT PUMP AIR TO AIR 16 FAN - COOLING COIL NODE,Air,1
 Node,523,AIR LOOP HVAC UNITARY HEAT PUMP AIR TO AIR 17 FAN - COOLING COIL NODE,Air,1
 Node,524,AIR LOOP HVAC UNITARY HEAT PUMP AIR TO AIR 18 FAN - COOLING COIL NODE,Air,1
 Node,525,AIR LOOP HVAC UNITARY HEAT PUMP AIR TO AIR 19 FAN - COOLING COIL NODE,Air,1
 Node,526,AIR LOOP HVAC UNITARY HEAT PUMP AIR TO AIR 1 FAN - COOLING COIL NODE,Air,1
 Node,527,AIR LOOP HVAC UNITARY HEAT PUMP AIR TO AIR 20 FAN - COOLING COIL NODE,Air,1
 Node,528,AIR LOOP HVAC UNITARY HEAT PUMP AIR TO AIR 21 FAN - COOLING COIL NODE,Air,1
 Node,529,AIR LOOP HVAC UNITARY HEAT PUMP AIR TO AIR 22 FAN - COOLING COIL NODE,Air,1
 Node,530,AIR LOOP HVAC UNITARY HEAT PUMP AIR TO AIR 23 FAN - COOLING COIL NODE,Air,1
 Node,531,AIR LOOP HVAC UNITARY HEAT PUMP AIR TO AIR 24 FAN - COOLING COIL NODE,Air,1
 Node,532,AIR LOOP HVAC UNITARY HEAT PUMP AIR TO AIR 25 FAN - COOLING COIL NODE,Air,1
 Node,533,AIR LOOP HVAC UNITARY HEAT PUMP AIR TO AIR 26 FAN - COOLING COIL NODE,Air,1
 Node,534,AIR LOOP HVAC UNITARY HEAT PUMP AIR TO AIR 27 FAN - COOLING COIL NODE,Air,1
 Node,535,AIR LOOP HVAC UNITARY HEAT PUMP AIR TO AIR 28 FAN - COOLING COIL NODE,Air,1
 Node,536,AIR LOOP HVAC UNITARY HEAT PUMP AIR TO AIR 29 FAN - COOLING COIL NODE,Air,1
 Node,537,AIR LOOP HVAC UNITARY HEAT PUMP AIR TO AIR 2 FAN - COOLING COIL NODE,Air,1
 Node,538,AIR LOOP HVAC UNITARY HEAT PUMP AIR TO AIR 30 FAN - COOLING COIL NODE,Air,1
 Node,539,AIR LOOP HVAC UNITARY HEAT PUMP AIR TO AIR 31 FAN - COOLING COIL NODE,Air,1
 Node,540,AIR LOOP HVAC UNITARY HEAT PUMP AIR TO AIR 32 FAN - COOLING COIL NODE,Air,1
 Node,541,AIR LOOP HVAC UNITARY HEAT PUMP AIR TO AIR 33 FAN - COOLING COIL NODE,Air,1
 Node,542,AIR LOOP HVAC UNITARY HEAT PUMP AIR TO AIR 34 FAN - COOLING COIL NODE,Air,1
 Node,543,AIR LOOP HVAC UNITARY HEAT PUMP AIR TO AIR 35 FAN - COOLING COIL NODE,Air,1
 Node,544,AIR LOOP HVAC UNITARY HEAT PUMP AIR TO AIR 36 FAN - COOLING COIL NODE,Air,1
 Node,545,AIR LOOP HVAC UNITARY HEAT PUMP AIR TO AIR 37 FAN - COOLING COIL NODE,Air,1
 Node,546,AIR LOOP HVAC UNITARY HEAT PUMP AIR TO AIR 38 FAN - COOLING COIL NODE,Air,1
 Node,547,AIR LOOP HVAC UNITARY HEAT PUMP AIR TO AIR 39 FAN - COOLING COIL NODE,Air,1
 Node,548,AIR LOOP HVAC UNITARY HEAT PUMP AIR TO AIR 3 FAN - COOLING COIL NODE,Air,1
 Node,549,AIR LOOP HVAC UNITARY HEAT PUMP AIR TO AIR 40 FAN - COOLING COIL NODE,Air,1
 Node,550,AIR LOOP HVAC UNITARY HEAT PUMP AIR TO AIR 41 FAN - COOLING COIL NODE,Air,1
 Node,551,AIR LOOP HVAC UNITARY HEAT PUMP AIR TO AIR 42 FAN - COOLING COIL NODE,Air,1
 Node,552,AIR LOOP HVAC UNITARY HEAT PUMP AIR TO AIR 43 FAN - COOLING COIL NODE,Air,1
 Node,553,AIR LOOP HVAC UNITARY HEAT PUMP AIR TO AIR 44 FAN - COOLING COIL NODE,Air,1
 Node,554,AIR LOOP HVAC UNITARY HEAT PUMP AIR TO AIR 45 FAN - COOLING COIL NODE,Air,1
 Node,555,AIR LOOP HVAC UNITARY HEAT PUMP AIR TO AIR 46 FAN - COOLING COIL NODE,Air,1
 Node,556,AIR LOOP HVAC UNITARY HEAT PUMP AIR TO AIR 47 FAN - COOLING COIL NODE,Air,1
 Node,557,AIR LOOP HVAC UNITARY HEAT PUMP AIR TO AIR 48 FAN - COOLING COIL NODE,Air,1
 Node,558,AIR LOOP HVAC UNITARY HEAT PUMP AIR TO AIR 49 FAN - COOLING COIL NODE,Air,1
 Node,559,AIR LOOP HVAC UNITARY HEAT PUMP AIR TO AIR 4 FAN - COOLING COIL NODE,Air,1
 Node,560,AIR LOOP HVAC UNITARY HEAT PUMP AIR TO AIR 50 FAN - COOLING COIL NODE,Air,1
 Node,561,AIR LOOP HVAC UNITARY HEAT PUMP AIR TO AIR 5 FAN - COOLING COIL NODE,Air,1
 Node,562,AIR LOOP HVAC UNITARY HEAT PUMP AIR TO AIR 6 FAN - COOLING COIL NODE,Air,1
 Node,563,AIR LOOP HVAC UNITARY HEAT PUMP AIR TO AIR 7 FAN - COOLING COIL NODE,Air,1
 Node,564,AIR LOOP HVAC UNITARY HEAT PUMP AIR TO AIR 8 FAN - COOLING COIL NODE,Air,1
 Node,565,AIR LOOP HVAC UNITARY HEAT PUMP AIR TO AIR 9 FAN - COOLING COIL NODE,Air,1
 Node,566,AIR LOOP HVAC UNITARY HEAT PUMP AIR TO AIR 10 COOLING COIL - HEATING COIL NODE,Air,1
 Node,567,AIR LOOP HVAC UNITARY HEAT PUMP AIR TO AIR 11 COOLING COIL - HEATING COIL NODE,Air,1
 Node,568,AIR LOOP HVAC UNITARY HEAT PUMP AIR TO AIR 12 COOLING COIL - HEATING COIL NODE,Air,1
 Node,569,AIR LOOP HVAC UNITARY HEAT PUMP AIR TO AIR 13 COOLING COIL - HEATING COIL NODE,Air,1
 Node,570,AIR LOOP HVAC UNITARY HEAT PUMP AIR TO AIR 14 COOLING COIL - HEATING COIL NODE,Air,1
 Node,571,AIR LOOP HVAC UNITARY HEAT PUMP AIR TO AIR 15 COOLING COIL - HEATING COIL NODE,Air,1
 Node,572,AIR LOOP HVAC UNITARY HEAT PUMP AIR TO AIR 16 COOLING COIL - HEATING COIL NODE,Air,1
 Node,573,AIR LOOP HVAC UNITARY HEAT PUMP AIR TO AIR 17 COOLING COIL - HEATING COIL NODE,Air,1
 Node,574,AIR LOOP HVAC UNITARY HEAT PUMP AIR TO AIR 18 COOLING COIL - HEATING COIL NODE,Air,1
 Node,575,AIR LOOP HVAC UNITARY HEAT PUMP AIR TO AIR 19 COOLING COIL - HEATING COIL NODE,Air,1
 Node,576,AIR LOOP HVAC UNITARY HEAT PUMP AIR TO AIR 1 COOLING COIL - HEATING COIL NODE,Air,1
 Node,577,AIR LOOP HVAC UNITARY HEAT PUMP AIR TO AIR 20 COOLING COIL - HEATING COIL NODE,Air,1
 Node,578,AIR LOOP HVAC UNITARY HEAT PUMP AIR TO AIR 21 COOLING COIL - HEATING COIL NODE,Air,1
 Node,579,AIR LOOP HVAC UNITARY HEAT PUMP AIR TO AIR 22 COOLING COIL - HEATING COIL NODE,Air,1
 Node,580,AIR LOOP HVAC UNITARY HEAT PUMP AIR TO AIR 23 COOLING COIL - HEATING COIL NODE,Air,1
 Node,581,AIR LOOP HVAC UNITARY HEAT PUMP AIR TO AIR 24 COOLING COIL - HEATING COIL NODE,Air,1
 Node,582,AIR LOOP HVAC UNITARY HEAT PUMP AIR TO AIR 25 COOLING COIL - HEATING COIL NODE,Air,1
 Node,583,AIR LOOP HVAC UNITARY HEAT PUMP AIR TO AIR 26 COOLING COIL - HEATING COIL NODE,Air,1
 Node,584,AIR LOOP HVAC UNITARY HEAT PUMP AIR TO AIR 27 COOLING COIL - HEATING COIL NODE,Air,1
 Node,585,AIR LOOP HVAC UNITARY HEAT PUMP AIR TO AIR 28 COOLING COIL - HEATING COIL NODE,Air,1
 Node,586,AIR LOOP HVAC UNITARY HEAT PUMP AIR TO AIR 29 COOLING COIL - HEATING COIL NODE,Air,1
 Node,587,AIR LOOP HVAC UNITARY HEAT PUMP AIR TO AIR 2 COOLING COIL - HEATING COIL NODE,Air,1
 Node,588,AIR LOOP HVAC UNITARY HEAT PUMP AIR TO AIR 30 COOLING COIL - HEATING COIL NODE,Air,1
 Node,589,AIR LOOP HVAC UNITARY HEAT PUMP AIR TO AIR 31 COOLING COIL - HEATING COIL NODE,Air,1
 Node,590,AIR LOOP HVAC UNITARY HEAT PUMP AIR TO AIR 32 COOLING COIL - HEATING COIL NODE,Air,1
 Node,591,AIR LOOP HVAC UNITARY HEAT PUMP AIR TO AIR 33 COOLING COIL - HEATING COIL NODE,Air,1
 Node,592,AIR LOOP HVAC UNITARY HEAT PUMP AIR TO AIR 34 COOLING COIL - HEATING COIL NODE,Air,1
 Node,593,AIR LOOP HVAC UNITARY HEAT PUMP AIR TO AIR 35 COOLING COIL - HEATING COIL NODE,Air,1
 Node,594,AIR LOOP HVAC UNITARY HEAT PUMP AIR TO AIR 36 COOLING COIL - HEATING COIL NODE,Air,1
 Node,595,AIR LOOP HVAC UNITARY HEAT PUMP AIR TO AIR 37 COOLING COIL - HEATING COIL NODE,Air,1
 Node,596,AIR LOOP HVAC UNITARY HEAT PUMP AIR TO AIR 38 COOLING COIL - HEATING COIL NODE,Air,1
 Node,597,AIR LOOP HVAC UNITARY HEAT PUMP AIR TO AIR 39 COOLING COIL - HEATING COIL NODE,Air,1
 Node,598,AIR LOOP HVAC UNITARY HEAT PUMP AIR TO AIR 3 COOLING COIL - HEATING COIL NODE,Air,1
 Node,599,AIR LOOP HVAC UNITARY HEAT PUMP AIR TO AIR 40 COOLING COIL - HEATING COIL NODE,Air,1
 Node,600,AIR LOOP HVAC UNITARY HEAT PUMP AIR TO AIR 41 COOLING COIL - HEATING COIL NODE,Air,1
 Node,601,AIR LOOP HVAC UNITARY HEAT PUMP AIR TO AIR 42 COOLING COIL - HEATING COIL NODE,Air,1
 Node,602,AIR LOOP HVAC UNITARY HEAT PUMP AIR TO AIR 43 COOLING COIL - HEATING COIL NODE,Air,1
 Node,603,AIR LOOP HVAC UNITARY HEAT PUMP AIR TO AIR 44 COOLING COIL - HEATING COIL NODE,Air,1
 Node,604,AIR LOOP HVAC UNITARY HEAT PUMP AIR TO AIR 45 COOLING COIL - HEATING COIL NODE,Air,1
 Node,605,AIR LOOP HVAC UNITARY HEAT PUMP AIR TO AIR 46 COOLING COIL - HEATING COIL NODE,Air,1
 Node,606,AIR LOOP HVAC UNITARY HEAT PUMP AIR TO AIR 47 COOLING COIL - HEATING COIL NODE,Air,1
 Node,607,AIR LOOP HVAC UNITARY HEAT PUMP AIR TO AIR 48 COOLING COIL - HEATING COIL NODE,Air,1
 Node,608,AIR LOOP HVAC UNITARY HEAT PUMP AIR TO AIR 49 COOLING COIL - HEATING COIL NODE,Air,1
 Node,609,AIR LOOP HVAC UNITARY HEAT PUMP AIR TO AIR 4 COOLING COIL - HEATING COIL NODE,Air,1
 Node,610,AIR LOOP HVAC UNITARY HEAT PUMP AIR TO AIR 50 COOLING COIL - HEATING COIL NODE,Air,1
 Node,611,AIR LOOP HVAC UNITARY HEAT PUMP AIR TO AIR 5 COOLING COIL - HEATING COIL NODE,Air,1
 Node,612,AIR LOOP HVAC UNITARY HEAT PUMP AIR TO AIR 6 COOLING COIL - HEATING COIL NODE,Air,1
 Node,613,AIR LOOP HVAC UNITARY HEAT PUMP AIR TO AIR 7 COOLING COIL - HEATING COIL NODE,Air,1
 Node,614,AIR LOOP HVAC UNITARY HEAT PUMP AIR TO AIR 8 COOLING COIL - HEATING COIL NODE,Air,1
 Node,615,AIR LOOP HVAC UNITARY HEAT PUMP AIR TO AIR 9 COOLING COIL - HEATING COIL NODE,Air,1
 Node,616,AIR LOOP HVAC UNITARY HEAT PUMP AIR TO AIR 10 HEATING COIL - SUPPLEMENTAL COIL NODE,Air,1
 Node,617,AIR LOOP HVAC UNITARY HEAT PUMP AIR TO AIR 11 HEATING COIL - SUPPLEMENTAL COIL NODE,Air,1
 Node,618,AIR LOOP HVAC UNITARY HEAT PUMP AIR TO AIR 12 HEATING COIL - SUPPLEMENTAL COIL NODE,Air,1
 Node,619,AIR LOOP HVAC UNITARY HEAT PUMP AIR TO AIR 13 HEATING COIL - SUPPLEMENTAL COIL NODE,Air,1
 Node,620,AIR LOOP HVAC UNITARY HEAT PUMP AIR TO AIR 14 HEATING COIL - SUPPLEMENTAL COIL NODE,Air,1
 Node,621,AIR LOOP HVAC UNITARY HEAT PUMP AIR TO AIR 15 HEATING COIL - SUPPLEMENTAL COIL NODE,Air,1
 Node,622,AIR LOOP HVAC UNITARY HEAT PUMP AIR TO AIR 16 HEATING COIL - SUPPLEMENTAL COIL NODE,Air,1
 Node,623,AIR LOOP HVAC UNITARY HEAT PUMP AIR TO AIR 17 HEATING COIL - SUPPLEMENTAL COIL NODE,Air,1
 Node,624,AIR LOOP HVAC UNITARY HEAT PUMP AIR TO AIR 18 HEATING COIL - SUPPLEMENTAL COIL NODE,Air,1
 Node,625,AIR LOOP HVAC UNITARY HEAT PUMP AIR TO AIR 19 HEATING COIL - SUPPLEMENTAL COIL NODE,Air,1
 Node,626,AIR LOOP HVAC UNITARY HEAT PUMP AIR TO AIR 1 HEATING COIL - SUPPLEMENTAL COIL NODE,Air,1
 Node,627,AIR LOOP HVAC UNITARY HEAT PUMP AIR TO AIR 20 HEATING COIL - SUPPLEMENTAL COIL NODE,Air,1
 Node,628,AIR LOOP HVAC UNITARY HEAT PUMP AIR TO AIR 21 HEATING COIL - SUPPLEMENTAL COIL NODE,Air,1
 Node,629,AIR LOOP HVAC UNITARY HEAT PUMP AIR TO AIR 22 HEATING COIL - SUPPLEMENTAL COIL NODE,Air,1
 Node,630,AIR LOOP HVAC UNITARY HEAT PUMP AIR TO AIR 23 HEATING COIL - SUPPLEMENTAL COIL NODE,Air,1
 Node,631,AIR LOOP HVAC UNITARY HEAT PUMP AIR TO AIR 24 HEATING COIL - SUPPLEMENTAL COIL NODE,Air,1
 Node,632,AIR LOOP HVAC UNITARY HEAT PUMP AIR TO AIR 25 HEATING COIL - SUPPLEMENTAL COIL NODE,Air,1
 Node,633,AIR LOOP HVAC UNITARY HEAT PUMP AIR TO AIR 26 HEATING COIL - SUPPLEMENTAL COIL NODE,Air,1
 Node,634,AIR LOOP HVAC UNITARY HEAT PUMP AIR TO AIR 27 HEATING COIL - SUPPLEMENTAL COIL NODE,Air,1
 Node,635,AIR LOOP HVAC UNITARY HEAT PUMP AIR TO AIR 28 HEATING COIL - SUPPLEMENTAL COIL NODE,Air,1
 Node,636,AIR LOOP HVAC UNITARY HEAT PUMP AIR TO AIR 29 HEATING COIL - SUPPLEMENTAL COIL NODE,Air,1
 Node,637,AIR LOOP HVAC UNITARY HEAT PUMP AIR TO AIR 2 HEATING COIL - SUPPLEMENTAL COIL NODE,Air,1
 Node,638,AIR LOOP HVAC UNITARY HEAT PUMP AIR TO AIR 30 HEATING COIL - SUPPLEMENTAL COIL NODE,Air,1
 Node,639,AIR LOOP HVAC UNITARY HEAT PUMP AIR TO AIR 31 HEATING COIL - SUPPLEMENTAL COIL NODE,Air,1
 Node,640,AIR LOOP HVAC UNITARY HEAT PUMP AIR TO AIR 32 HEATING COIL - SUPPLEMENTAL COIL NODE,Air,1
 Node,641,AIR LOOP HVAC UNITARY HEAT PUMP AIR TO AIR 33 HEATING COIL - SUPPLEMENTAL COIL NODE,Air,1
 Node,642,AIR LOOP HVAC UNITARY HEAT PUMP AIR TO AIR 34 HEATING COIL - SUPPLEMENTAL COIL NODE,Air,1
 Node,643,AIR LOOP HVAC UNITARY HEAT PUMP AIR TO AIR 35 HEATING COIL - SUPPLEMENTAL COIL NODE,Air,1
 Node,644,AIR LOOP HVAC UNITARY HEAT PUMP AIR TO AIR 36 HEATING COIL - SUPPLEMENTAL COIL NODE,Air,1
 Node,645,AIR LOOP HVAC UNITARY HEAT PUMP AIR TO AIR 37 HEATING COIL - SUPPLEMENTAL COIL NODE,Air,1
 Node,646,AIR LOOP HVAC UNITARY HEAT PUMP AIR TO AIR 38 HEATING COIL - SUPPLEMENTAL COIL NODE,Air,1
 Node,647,AIR LOOP HVAC UNITARY HEAT PUMP AIR TO AIR 39 HEATING COIL - SUPPLEMENTAL COIL NODE,Air,1
 Node,648,AIR LOOP HVAC UNITARY HEAT PUMP AIR TO AIR 3 HEATING COIL - SUPPLEMENTAL COIL NODE,Air,1
 Node,649,AIR LOOP HVAC UNITARY HEAT PUMP AIR TO AIR 40 HEATING COIL - SUPPLEMENTAL COIL NODE,Air,1
 Node,650,AIR LOOP HVAC UNITARY HEAT PUMP AIR TO AIR 41 HEATING COIL - SUPPLEMENTAL COIL NODE,Air,1
 Node,651,AIR LOOP HVAC UNITARY HEAT PUMP AIR TO AIR 42 HEATING COIL - SUPPLEMENTAL COIL NODE,Air,1
 Node,652,AIR LOOP HVAC UNITARY HEAT PUMP AIR TO AIR 43 HEATING COIL - SUPPLEMENTAL COIL NODE,Air,1
 Node,653,AIR LOOP HVAC UNITARY HEAT PUMP AIR TO AIR 44 HEATING COIL - SUPPLEMENTAL COIL NODE,Air,1
 Node,654,AIR LOOP HVAC UNITARY HEAT PUMP AIR TO AIR 45 HEATING COIL - SUPPLEMENTAL COIL NODE,Air,1
 Node,655,AIR LOOP HVAC UNITARY HEAT PUMP AIR TO AIR 46 HEATING COIL - SUPPLEMENTAL COIL NODE,Air,1
 Node,656,AIR LOOP HVAC UNITARY HEAT PUMP AIR TO AIR 47 HEATING COIL - SUPPLEMENTAL COIL NODE,Air,1
 Node,657,AIR LOOP HVAC UNITARY HEAT PUMP AIR TO AIR 48 HEATING COIL - SUPPLEMENTAL COIL NODE,Air,1
 Node,658,AIR LOOP HVAC UNITARY HEAT PUMP AIR TO AIR 49 HEATING COIL - SUPPLEMENTAL COIL NODE,Air,1
 Node,659,AIR LOOP HVAC UNITARY HEAT PUMP AIR TO AIR 4 HEATING COIL - SUPPLEMENTAL COIL NODE,Air,1
 Node,660,AIR LOOP HVAC UNITARY HEAT PUMP AIR TO AIR 50 HEATING COIL - SUPPLEMENTAL COIL NODE,Air,1
 Node,661,AIR LOOP HVAC UNITARY HEAT PUMP AIR TO AIR 5 HEATING COIL - SUPPLEMENTAL COIL NODE,Air,1
 Node,662,AIR LOOP HVAC UNITARY HEAT PUMP AIR TO AIR 6 HEATING COIL - SUPPLEMENTAL COIL NODE,Air,1
 Node,663,AIR LOOP HVAC UNITARY HEAT PUMP AIR TO AIR 7 HEATING COIL - SUPPLEMENTAL COIL NODE,Air,1
 Node,664,AIR LOOP HVAC UNITARY HEAT PUMP AIR TO AIR 8 HEATING COIL - SUPPLEMENTAL COIL NODE,Air,1
 Node,665,AIR LOOP HVAC UNITARY HEAT PUMP AIR TO AIR 9 HEATING COIL - SUPPLEMENTAL COIL NODE,Air,1
! ===============================================================
! Suspicious nodes have 0 references.  It is normal for some nodes, however.
! Listing nodes with 0 references (culled from previous list):
! <Suspicious Node>,<NodeNumber>,<Node Name>,<Node Fluid Type>,<# Times Node Referenced After Definition>
 Suspicious Node,465,MODEL OUTDOOR AIR NODE,Air,0
! ===============================================================
! <#Branch Lists>,<Number of Branch Lists>
 #Branch Lists,52
! <Branch List>,<Branch List Count>,<Branch List Name>,<Loop Name>,<Loop Type>,<Number of Branches>
! <Branch>,<Branch Count>,<Branch Name>,<Loop Name>,<Loop Type>,<Branch Inlet Node Name>,<Branch Outlet Node Name>
 Branch List,1,AIRLOOP AIR_HANDLERS-573_10_BLK SUPPLY BRANCHES,AIRLOOP AIR_HANDLERS-573_10_BLK,Air,1
   Branch,1,AIRLOOP AIR_HANDLERS-573_10_BLK MAIN BRANCH,AIRLOOP AIR_HANDLERS-573_10_BLK,Air,NODE 141,NODE 142
 Branch List,2,AIRLOOP AIR_HANDLERS-573_11_BLK SUPPLY BRANCHES,AIRLOOP AIR_HANDLERS-573_11_BLK,Air,1
   Branch,1,AIRLOOP AIR_HANDLERS-573_11_BLK MAIN BRANCH,AIRLOOP AIR_HANDLERS-573_11_BLK,Air,NODE 150,NODE 151
 Branch List,3,AIRLOOP AIR_HANDLERS-573_12_BLK SUPPLY BRANCHES,AIRLOOP AIR_HANDLERS-573_12_BLK,Air,1
   Branch,1,AIRLOOP AIR_HANDLERS-573_12_BLK MAIN BRANCH,AIRLOOP AIR_HANDLERS-573_12_BLK,Air,NODE 159,NODE 160
 Branch List,4,AIRLOOP AIR_HANDLERS-573_13_BLK SUPPLY BRANCHES,AIRLOOP AIR_HANDLERS-573_13_BLK,Air,1
   Branch,1,AIRLOOP AIR_HANDLERS-573_13_BLK MAIN BRANCH,AIRLOOP AIR_HANDLERS-573_13_BLK,Air,NODE 168,NODE 169
 Branch List,5,AIRLOOP AIR_HANDLERS-573_14_BLK SUPPLY BRANCHES,AIRLOOP AIR_HANDLERS-573_14_BLK,Air,1
   Branch,1,AIRLOOP AIR_HANDLERS-573_14_BLK MAIN BRANCH,AIRLOOP AIR_HANDLERS-573_14_BLK,Air,NODE 177,NODE 178
 Branch List,6,AIRLOOP AIR_HANDLERS-573_15_BLK SUPPLY BRANCHES,AIRLOOP AIR_HANDLERS-573_15_BLK,Air,1
   Branch,1,AIRLOOP AIR_HANDLERS-573_15_BLK MAIN BRANCH,AIRLOOP AIR_HANDLERS-573_15_BLK,Air,NODE 186,NODE 187
 Branch List,7,AIRLOOP AIR_HANDLERS-573_16_BLK SUPPLY BRANCHES,AIRLOOP AIR_HANDLERS-573_16_BLK,Air,1
   Branch,1,AIRLOOP AIR_HANDLERS-573_16_BLK MAIN BRANCH,AIRLOOP AIR_HANDLERS-573_16_BLK,Air,NODE 195,NODE 196
 Branch List,8,AIRLOOP AIR_HANDLERS-573_17_BLK SUPPLY BRANCHES,AIRLOOP AIR_HANDLERS-573_17_BLK,Air,1
   Branch,1,AIRLOOP AIR_HANDLERS-573_17_BLK MAIN BRANCH,AIRLOOP AIR_HANDLERS-573_17_BLK,Air,NODE 204,NODE 205
 Branch List,9,AIRLOOP AIR_HANDLERS-573_18_BLK SUPPLY BRANCHES,AIRLOOP AIR_HANDLERS-573_18_BLK,Air,1
   Branch,1,AIRLOOP AIR_HANDLERS-573_18_BLK MAIN BRANCH,AIRLOOP AIR_HANDLERS-573_18_BLK,Air,NODE 213,NODE 214
 Branch List,10,AIRLOOP AIR_HANDLERS-573_19_BLK SUPPLY BRANCHES,AIRLOOP AIR_HANDLERS-573_19_BLK,Air,1
   Branch,1,AIRLOOP AIR_HANDLERS-573_19_BLK MAIN BRANCH,AIRLOOP AIR_HANDLERS-573_19_BLK,Air,NODE 222,NODE 223
 Branch List,11,AIRLOOP AIR_HANDLERS-573_1_BLK SUPPLY BRANCHES,AIRLOOP AIR_HANDLERS-573_1_BLK,Air,1
   Branch,1,AIRLOOP AIR_HANDLERS-573_1_BLK MAIN BRANCH,AIRLOOP AIR_HANDLERS-573_1_BLK,Air,NODE 60,NODE 61
 Branch List,12,AIRLOOP AIR_HANDLERS-573_20_BLK SUPPLY BRANCHES,AIRLOOP AIR_HANDLERS-573_20_BLK,Air,1
   Branch,1,AIRLOOP AIR_HANDLERS-573_20_BLK MAIN BRANCH,AIRLOOP AIR_HANDLERS-573_20_BLK,Air,NODE 231,NODE 232
 Branch List,13,AIRLOOP AIR_HANDLERS-573_21_BLK SUPPLY BRANCHES,AIRLOOP AIR_HANDLERS-573_21_BLK,Air,1
   Branch,1,AIRLOOP AIR_HANDLERS-573_21_BLK MAIN BRANCH,AIRLOOP AIR_HANDLERS-573_21_BLK,Air,NODE 240,NODE 241
 Branch List,14,AIRLOOP AIR_HANDLERS-573_22_BLK SUPPLY BRANCHES,AIRLOOP AIR_HANDLERS-573_22_BLK,Air,1
   Branch,1,AIRLOOP AIR_HANDLERS-573_22_BLK MAIN BRANCH,AIRLOOP AIR_HANDLERS-573_22_BLK,Air,NODE 249,NODE 250
 Branch List,15,AIRLOOP AIR_HANDLERS-573_23_BLK SUPPLY BRANCHES,AIRLOOP AIR_HANDLERS-573_23_BLK,Air,1
   Branch,1,AIRLOOP AIR_HANDLERS-573_23_BLK MAIN BRANCH,AIRLOOP AIR_HANDLERS-573_23_BLK,Air,NODE 258,NODE 259
 Branch List,16,AIRLOOP AIR_HANDLERS-573_24_BLK SUPPLY BRANCHES,AIRLOOP AIR_HANDLERS-573_24_BLK,Air,1
   Branch,1,AIRLOOP AIR_HANDLERS-573_24_BLK MAIN BRANCH,AIRLOOP AIR_HANDLERS-573_24_BLK,Air,NODE 267,NODE 268
 Branch List,17,AIRLOOP AIR_HANDLERS-573_25_BLK SUPPLY BRANCHES,AIRLOOP AIR_HANDLERS-573_25_BLK,Air,1
   Branch,1,AIRLOOP AIR_HANDLERS-573_25_BLK MAIN BRANCH,AIRLOOP AIR_HANDLERS-573_25_BLK,Air,NODE 276,NODE 277
 Branch List,18,AIRLOOP AIR_HANDLERS-573_26_BLK SUPPLY BRANCHES,AIRLOOP AIR_HANDLERS-573_26_BLK,Air,1
   Branch,1,AIRLOOP AIR_HANDLERS-573_26_BLK MAIN BRANCH,AIRLOOP AIR_HANDLERS-573_26_BLK,Air,NODE 285,NODE 286
 Branch List,19,AIRLOOP AIR_HANDLERS-573_27_BLK SUPPLY BRANCHES,AIRLOOP AIR_HANDLERS-573_27_BLK,Air,1
   Branch,1,AIRLOOP AIR_HANDLERS-573_27_BLK MAIN BRANCH,AIRLOOP AIR_HANDLERS-573_27_BLK,Air,NODE 294,NODE 295
 Branch List,20,AIRLOOP AIR_HANDLERS-573_28_BLK SUPPLY BRANCHES,AIRLOOP AIR_HANDLERS-573_28_BLK,Air,1
   Branch,1,AIRLOOP AIR_HANDLERS-573_28_BLK MAIN BRANCH,AIRLOOP AIR_HANDLERS-573_28_BLK,Air,NODE 303,NODE 304
 Branch List,21,AIRLOOP AIR_HANDLERS-573_29_BLK SUPPLY BRANCHES,AIRLOOP AIR_HANDLERS-573_29_BLK,Air,1
   Branch,1,AIRLOOP AIR_HANDLERS-573_29_BLK MAIN BRANCH,AIRLOOP AIR_HANDLERS-573_29_BLK,Air,NODE 312,NODE 313
 Branch List,22,AIRLOOP AIR_HANDLERS-573_2_BLK SUPPLY BRANCHES,AIRLOOP AIR_HANDLERS-573_2_BLK,Air,1
   Branch,1,AIRLOOP AIR_HANDLERS-573_2_BLK MAIN BRANCH,AIRLOOP AIR_HANDLERS-573_2_BLK,Air,NODE 69,NODE 70
 Branch List,23,AIRLOOP AIR_HANDLERS-573_30_BLK SUPPLY BRANCHES,AIRLOOP AIR_HANDLERS-573_30_BLK,Air,1
   Branch,1,AIRLOOP AIR_HANDLERS-573_30_BLK MAIN BRANCH,AIRLOOP AIR_HANDLERS-573_30_BLK,Air,NODE 321,NODE 322
 Branch List,24,AIRLOOP AIR_HANDLERS-573_31_BLK SUPPLY BRANCHES,AIRLOOP AIR_HANDLERS-573_31_BLK,Air,1
   Branch,1,AIRLOOP AIR_HANDLERS-573_31_BLK MAIN BRANCH,AIRLOOP AIR_HANDLERS-573_31_BLK,Air,NODE 330,NODE 331
 Branch List,25,AIRLOOP AIR_HANDLERS-573_32_BLK SUPPLY BRANCHES,AIRLOOP AIR_HANDLERS-573_32_BLK,Air,1
   Branch,1,AIRLOOP AIR_HANDLERS-573_32_BLK MAIN BRANCH,AIRLOOP AIR_HANDLERS-573_32_BLK,Air,NODE 339,NODE 340
 Branch List,26,AIRLOOP AIR_HANDLERS-573_33_BLK SUPPLY BRANCHES,AIRLOOP AIR_HANDLERS-573_33_BLK,Air,1
   Branch,1,AIRLOOP AIR_HANDLERS-573_33_BLK MAIN BRANCH,AIRLOOP AIR_HANDLERS-573_33_BLK,Air,NODE 348,NODE 349
 Branch List,27,AIRLOOP AIR_HANDLERS-573_34_BLK SUPPLY BRANCHES,AIRLOOP AIR_HANDLERS-573_34_BLK,Air,1
   Branch,1,AIRLOOP AIR_HANDLERS-573_34_BLK MAIN BRANCH,AIRLOOP AIR_HANDLERS-573_34_BLK,Air,NODE 357,NODE 358
 Branch List,28,AIRLOOP AIR_HANDLERS-573_35_BLK SUPPLY BRANCHES,AIRLOOP AIR_HANDLERS-573_35_BLK,Air,1
   Branch,1,AIRLOOP AIR_HANDLERS-573_35_BLK MAIN BRANCH,AIRLOOP AIR_HANDLERS-573_35_BLK,Air,NODE 366,NODE 367
 Branch List,29,AIRLOOP AIR_HANDLERS-573_36_BLK SUPPLY BRANCHES,AIRLOOP AIR_HANDLERS-573_36_BLK,Air,1
   Branch,1,AIRLOOP AIR_HANDLERS-573_36_BLK MAIN BRANCH,AIRLOOP AIR_HANDLERS-573_36_BLK,Air,NODE 375,NODE 376
 Branch List,30,AIRLOOP AIR_HANDLERS-573_37_BLK SUPPLY BRANCHES,AIRLOOP AIR_HANDLERS-573_37_BLK,Air,1
   Branch,1,AIRLOOP AIR_HANDLERS-573_37_BLK MAIN BRANCH,AIRLOOP AIR_HANDLERS-573_37_BLK,Air,NODE 384,NODE 385
 Branch List,31,AIRLOOP AIR_HANDLERS-573_38_BLK SUPPLY BRANCHES,AIRLOOP AIR_HANDLERS-573_38_BLK,Air,1
   Branch,1,AIRLOOP AIR_HANDLERS-573_38_BLK MAIN BRANCH,AIRLOOP AIR_HANDLERS-573_38_BLK,Air,NODE 393,NODE 394
 Branch List,32,AIRLOOP AIR_HANDLERS-573_39_BLK SUPPLY BRANCHES,AIRLOOP AIR_HANDLERS-573_39_BLK,Air,1
   Branch,1,AIRLOOP AIR_HANDLERS-573_39_BLK MAIN BRANCH,AIRLOOP AIR_HANDLERS-573_39_BLK,Air,NODE 402,NODE 403
 Branch List,33,AIRLOOP AIR_HANDLERS-573_3_BLK SUPPLY BRANCHES,AIRLOOP AIR_HANDLERS-573_3_BLK,Air,1
   Branch,1,AIRLOOP AIR_HANDLERS-573_3_BLK MAIN BRANCH,AIRLOOP AIR_HANDLERS-573_3_BLK,Air,NODE 78,NODE 79
 Branch List,34,AIRLOOP AIR_HANDLERS-573_40_BLK SUPPLY BRANCHES,AIRLOOP AIR_HANDLERS-573_40_BLK,Air,1
   Branch,1,AIRLOOP AIR_HANDLERS-573_40_BLK MAIN BRANCH,AIRLOOP AIR_HANDLERS-573_40_BLK,Air,NODE 411,NODE 412
 Branch List,35,AIRLOOP AIR_HANDLERS-573_41_BLK SUPPLY BRANCHES,AIRLOOP AIR_HANDLERS-573_41_BLK,Air,1
   Branch,1,AIRLOOP AIR_HANDLERS-573_41_BLK MAIN BRANCH,AIRLOOP AIR_HANDLERS-573_41_BLK,Air,NODE 420,NODE 421
 Branch List,36,AIRLOOP AIR_HANDLERS-573_42_BLK SUPPLY BRANCHES,AIRLOOP AIR_HANDLERS-573_42_BLK,Air,1
   Branch,1,AIRLOOP AIR_HANDLERS-573_42_BLK MAIN BRANCH,AIRLOOP AIR_HANDLERS-573_42_BLK,Air,NODE 429,NODE 430
 Branch List,37,AIRLOOP AIR_HANDLERS-573_43_BLK SUPPLY BRANCHES,AIRLOOP AIR_HANDLERS-573_43_BLK,Air,1
   Branch,1,AIRLOOP AIR_HANDLERS-573_43_BLK MAIN BRANCH,AIRLOOP AIR_HANDLERS-573_43_BLK,Air,NODE 438,NODE 439
 Branch List,38,AIRLOOP AIR_HANDLERS-573_44_BLK SUPPLY BRANCHES,AIRLOOP AIR_HANDLERS-573_44_BLK,Air,1
   Branch,1,AIRLOOP AIR_HANDLERS-573_44_BLK MAIN BRANCH,AIRLOOP AIR_HANDLERS-573_44_BLK,Air,NODE 447,NODE 448
 Branch List,39,AIRLOOP AIR_HANDLERS-573_45_BLK SUPPLY BRANCHES,AIRLOOP AIR_HANDLERS-573_45_BLK,Air,1
   Branch,1,AIRLOOP AIR_HANDLERS-573_45_BLK MAIN BRANCH,AIRLOOP AIR_HANDLERS-573_45_BLK,Air,NODE 456,NODE 457
 Branch List,40,AIRLOOP AIR_HANDLERS-573_46_BLK SUPPLY BRANCHES,AIRLOOP AIR_HANDLERS-573_46_BLK,Air,1
   Branch,1,AIRLOOP AIR_HANDLERS-573_46_BLK MAIN BRANCH,AIRLOOP AIR_HANDLERS-573_46_BLK,Air,NODE 465,NODE 466
 Branch List,41,AIRLOOP AIR_HANDLERS-573_47_BLK SUPPLY BRANCHES,AIRLOOP AIR_HANDLERS-573_47_BLK,Air,1
   Branch,1,AIRLOOP AIR_HANDLERS-573_47_BLK MAIN BRANCH,AIRLOOP AIR_HANDLERS-573_47_BLK,Air,NODE 474,NODE 475
 Branch List,42,AIRLOOP AIR_HANDLERS-573_48_BLK SUPPLY BRANCHES,AIRLOOP AIR_HANDLERS-573_48_BLK,Air,1
   Branch,1,AIRLOOP AIR_HANDLERS-573_48_BLK MAIN BRANCH,AIRLOOP AIR_HANDLERS-573_48_BLK,Air,NODE 483,NODE 484
 Branch List,43,AIRLOOP AIR_HANDLERS-573_49_BLK SUPPLY BRANCHES,AIRLOOP AIR_HANDLERS-573_49_BLK,Air,1
   Branch,1,AIRLOOP AIR_HANDLERS-573_49_BLK MAIN BRANCH,AIRLOOP AIR_HANDLERS-573_49_BLK,Air,NODE 492,NODE 493
 Branch List,44,AIRLOOP AIR_HANDLERS-573_4_BLK SUPPLY BRANCHES,AIRLOOP AIR_HANDLERS-573_4_BLK,Air,1
   Branch,1,AIRLOOP AIR_HANDLERS-573_4_BLK MAIN BRANCH,AIRLOOP AIR_HANDLERS-573_4_BLK,Air,NODE 87,NODE 88
 Branch List,45,AIRLOOP AIR_HANDLERS-573_50_BLK SUPPLY BRANCHES,AIRLOOP AIR_HANDLERS-573_50_BLK,Air,1
   Branch,1,AIRLOOP AIR_HANDLERS-573_50_BLK MAIN BRANCH,AIRLOOP AIR_HANDLERS-573_50_BLK,Air,NODE 501,NODE 502
 Branch List,46,AIRLOOP AIR_HANDLERS-573_5_BLK SUPPLY BRANCHES,AIRLOOP AIR_HANDLERS-573_5_BLK,Air,1
   Branch,1,AIRLOOP AIR_HANDLERS-573_5_BLK MAIN BRANCH,AIRLOOP AIR_HANDLERS-573_5_BLK,Air,NODE 96,NODE 97
 Branch List,47,AIRLOOP AIR_HANDLERS-573_6_BLK SUPPLY BRANCHES,AIRLOOP AIR_HANDLERS-573_6_BLK,Air,1
   Branch,1,AIRLOOP AIR_HANDLERS-573_6_BLK MAIN BRANCH,AIRLOOP AIR_HANDLERS-573_6_BLK,Air,NODE 105,NODE 106
 Branch List,48,AIRLOOP AIR_HANDLERS-573_7_BLK SUPPLY BRANCHES,AIRLOOP AIR_HANDLERS-573_7_BLK,Air,1
   Branch,1,AIRLOOP AIR_HANDLERS-573_7_BLK MAIN BRANCH,AIRLOOP AIR_HANDLERS-573_7_BLK,Air,NODE 114,NODE 115
 Branch List,49,AIRLOOP AIR_HANDLERS-573_8_BLK SUPPLY BRANCHES,AIRLOOP AIR_HANDLERS-573_8_BLK,Air,1
   Branch,1,AIRLOOP AIR_HANDLERS-573_8_BLK MAIN BRANCH,AIRLOOP AIR_HANDLERS-573_8_BLK,Air,NODE 123,NODE 124
 Branch List,50,AIRLOOP AIR_HANDLERS-573_9_BLK SUPPLY BRANCHES,AIRLOOP AIR_HANDLERS-573_9_BLK,Air,1
   Branch,1,AIRLOOP AIR_HANDLERS-573_9_BLK MAIN BRANCH,AIRLOOP AIR_HANDLERS-573_9_BLK,Air,NODE 132,NODE 133
 Branch List,51,SWPLANT WATER_HEATERS-530 SUPPLY BRANCHES,SWPLANT WATER_HEATERS-530,Plant Supply,3
   Branch,1,SWPLANT WATER_HEATERS-530 SUPPLY INLET BRANCH,SWPLANT WATER_HEATERS-530,Plant Supply,NODE 1,NODE 7
   Branch,2,SWPLANT WATER_HEATERS-530 SUPPLY BRANCH 1,SWPLANT WATER_HEATERS-530,Plant Supply,NODE 3,NODE 8
   Branch,3,SWPLANT WATER_HEATERS-530 SUPPLY OUTLET BRANCH,SWPLANT WATER_HEATERS-530,Plant Supply,SWPLANT WATER_HEATERS-530 SUPPLY OUTLET PIPE NODE,NODE 2
 Branch List,52,SWPLANT WATER_HEATERS-530 DEMAND BRANCHES,SWPLANT WATER_HEATERS-530,Plant Demand,4
   Branch,1,SWPLANT WATER_HEATERS-530 DEMAND INLET BRANCH,SWPLANT WATER_HEATERS-530,Plant Demand,NODE 4,SWPLANT WATER_HEATERS-530 DEMAND INLET PIPE NODE
   Branch,2,SWPLANT WATER_HEATERS-530 DEMAND BRANCH 1,SWPLANT WATER_HEATERS-530,Plant Demand,NODE 6,NODE 9
   Branch,3,SWPLANT WATER_HEATERS-530 DEMAND BYPASS BRANCH,SWPLANT WATER_HEATERS-530,Plant Demand,SWPLANT WATER_HEATERS-530 DEMAND BYPASS PIPE INLET NODE,SWPLANT WATER_HEATERS-530 DEMAND BYPASS PIPE OUTLET NODE
   Branch,4,SWPLANT WATER_HEATERS-530 DEMAND OUTLET BRANCH,SWPLANT WATER_HEATERS-530,Plant Demand,SWPLANT WATER_HEATERS-530 DEMAND OUTLET PIPE NODE,NODE 5
! ===============================================================
! <#Supply Air Paths>,<Number of Supply Air Paths>
 #Supply Air Paths,50
! <Supply Air Path>,<Supply Air Path Count>,<Supply Air Path Name>,<AirLoopHVAC Name>
! <#Components on Supply Air Path>,<Number of Components>
! <Supply Air Path Component>,<Component Count>,<Component Type>,<Component Name>,<AirLoopHVAC Name>
! <#Outlet Nodes on Supply Air Path Component>,<Number of Nodes>
! <Supply Air Path Component Nodes>,<Node Count>,<Component Type>,<Component Name>,<Inlet Node Name>,<Outlet Node Name>,<AirLoopHVAC Name>
 Supply Air Path,1,AIRLOOP AIR_HANDLERS-573_10_BLK NODE 143 SUPPLY PATH,AIRLOOP AIR_HANDLERS-573_10_BLK
   #Components on Supply Air Path,1
   Supply Air Path Component,1,AIRLOOPHVAC:ZONESPLITTER,AIR LOOP HVAC ZONE SPLITTER 10,AIRLOOP AIR_HANDLERS-573_10_BLK
     #Outlet Nodes on Supply Air Path Component,1
     Supply Air Path Component Nodes,1,AIRLOOPHVAC:ZONESPLITTER,AIR LOOP HVAC ZONE SPLITTER 10,NODE 143,NODE 145,AIRLOOP AIR_HANDLERS-573_10_BLK
! <#Nodes on Supply Air Path>,<Number of Nodes>
! <Supply Air Path Node>,<Node Type>,<Node Count>,<Node Name>,<AirLoopHVAC Name>
#Nodes on Supply Air Path,2
   Supply Air Path Node,Inlet Node,1,NODE 143,AIRLOOP AIR_HANDLERS-573_10_BLK
   Supply Air Path Node,Outlet Node,2,NODE 145,AIRLOOP AIR_HANDLERS-573_10_BLK
 Supply Air Path,2,AIRLOOP AIR_HANDLERS-573_11_BLK NODE 152 SUPPLY PATH,AIRLOOP AIR_HANDLERS-573_11_BLK
   #Components on Supply Air Path,1
   Supply Air Path Component,1,AIRLOOPHVAC:ZONESPLITTER,AIR LOOP HVAC ZONE SPLITTER 11,AIRLOOP AIR_HANDLERS-573_11_BLK
     #Outlet Nodes on Supply Air Path Component,1
     Supply Air Path Component Nodes,1,AIRLOOPHVAC:ZONESPLITTER,AIR LOOP HVAC ZONE SPLITTER 11,NODE 152,NODE 154,AIRLOOP AIR_HANDLERS-573_11_BLK
! <#Nodes on Supply Air Path>,<Number of Nodes>
! <Supply Air Path Node>,<Node Type>,<Node Count>,<Node Name>,<AirLoopHVAC Name>
#Nodes on Supply Air Path,2
   Supply Air Path Node,Inlet Node,1,NODE 152,AIRLOOP AIR_HANDLERS-573_11_BLK
   Supply Air Path Node,Outlet Node,2,NODE 154,AIRLOOP AIR_HANDLERS-573_11_BLK
 Supply Air Path,3,AIRLOOP AIR_HANDLERS-573_12_BLK NODE 161 SUPPLY PATH,AIRLOOP AIR_HANDLERS-573_12_BLK
   #Components on Supply Air Path,1
   Supply Air Path Component,1,AIRLOOPHVAC:ZONESPLITTER,AIR LOOP HVAC ZONE SPLITTER 12,AIRLOOP AIR_HANDLERS-573_12_BLK
     #Outlet Nodes on Supply Air Path Component,1
     Supply Air Path Component Nodes,1,AIRLOOPHVAC:ZONESPLITTER,AIR LOOP HVAC ZONE SPLITTER 12,NODE 161,NODE 163,AIRLOOP AIR_HANDLERS-573_12_BLK
! <#Nodes on Supply Air Path>,<Number of Nodes>
! <Supply Air Path Node>,<Node Type>,<Node Count>,<Node Name>,<AirLoopHVAC Name>
#Nodes on Supply Air Path,2
   Supply Air Path Node,Inlet Node,1,NODE 161,AIRLOOP AIR_HANDLERS-573_12_BLK
   Supply Air Path Node,Outlet Node,2,NODE 163,AIRLOOP AIR_HANDLERS-573_12_BLK
 Supply Air Path,4,AIRLOOP AIR_HANDLERS-573_13_BLK NODE 170 SUPPLY PATH,AIRLOOP AIR_HANDLERS-573_13_BLK
   #Components on Supply Air Path,1
   Supply Air Path Component,1,AIRLOOPHVAC:ZONESPLITTER,AIR LOOP HVAC ZONE SPLITTER 13,AIRLOOP AIR_HANDLERS-573_13_BLK
     #Outlet Nodes on Supply Air Path Component,1
     Supply Air Path Component Nodes,1,AIRLOOPHVAC:ZONESPLITTER,AIR LOOP HVAC ZONE SPLITTER 13,NODE 170,NODE 172,AIRLOOP AIR_HANDLERS-573_13_BLK
! <#Nodes on Supply Air Path>,<Number of Nodes>
! <Supply Air Path Node>,<Node Type>,<Node Count>,<Node Name>,<AirLoopHVAC Name>
#Nodes on Supply Air Path,2
   Supply Air Path Node,Inlet Node,1,NODE 170,AIRLOOP AIR_HANDLERS-573_13_BLK
   Supply Air Path Node,Outlet Node,2,NODE 172,AIRLOOP AIR_HANDLERS-573_13_BLK
 Supply Air Path,5,AIRLOOP AIR_HANDLERS-573_14_BLK NODE 179 SUPPLY PATH,AIRLOOP AIR_HANDLERS-573_14_BLK
   #Components on Supply Air Path,1
   Supply Air Path Component,1,AIRLOOPHVAC:ZONESPLITTER,AIR LOOP HVAC ZONE SPLITTER 14,AIRLOOP AIR_HANDLERS-573_14_BLK
     #Outlet Nodes on Supply Air Path Component,1
     Supply Air Path Component Nodes,1,AIRLOOPHVAC:ZONESPLITTER,AIR LOOP HVAC ZONE SPLITTER 14,NODE 179,NODE 181,AIRLOOP AIR_HANDLERS-573_14_BLK
! <#Nodes on Supply Air Path>,<Number of Nodes>
! <Supply Air Path Node>,<Node Type>,<Node Count>,<Node Name>,<AirLoopHVAC Name>
#Nodes on Supply Air Path,2
   Supply Air Path Node,Inlet Node,1,NODE 179,AIRLOOP AIR_HANDLERS-573_14_BLK
   Supply Air Path Node,Outlet Node,2,NODE 181,AIRLOOP AIR_HANDLERS-573_14_BLK
 Supply Air Path,6,AIRLOOP AIR_HANDLERS-573_15_BLK NODE 188 SUPPLY PATH,AIRLOOP AIR_HANDLERS-573_15_BLK
   #Components on Supply Air Path,1
   Supply Air Path Component,1,AIRLOOPHVAC:ZONESPLITTER,AIR LOOP HVAC ZONE SPLITTER 15,AIRLOOP AIR_HANDLERS-573_15_BLK
     #Outlet Nodes on Supply Air Path Component,1
     Supply Air Path Component Nodes,1,AIRLOOPHVAC:ZONESPLITTER,AIR LOOP HVAC ZONE SPLITTER 15,NODE 188,NODE 190,AIRLOOP AIR_HANDLERS-573_15_BLK
! <#Nodes on Supply Air Path>,<Number of Nodes>
! <Supply Air Path Node>,<Node Type>,<Node Count>,<Node Name>,<AirLoopHVAC Name>
#Nodes on Supply Air Path,2
   Supply Air Path Node,Inlet Node,1,NODE 188,AIRLOOP AIR_HANDLERS-573_15_BLK
   Supply Air Path Node,Outlet Node,2,NODE 190,AIRLOOP AIR_HANDLERS-573_15_BLK
 Supply Air Path,7,AIRLOOP AIR_HANDLERS-573_16_BLK NODE 197 SUPPLY PATH,AIRLOOP AIR_HANDLERS-573_16_BLK
   #Components on Supply Air Path,1
   Supply Air Path Component,1,AIRLOOPHVAC:ZONESPLITTER,AIR LOOP HVAC ZONE SPLITTER 16,AIRLOOP AIR_HANDLERS-573_16_BLK
     #Outlet Nodes on Supply Air Path Component,1
     Supply Air Path Component Nodes,1,AIRLOOPHVAC:ZONESPLITTER,AIR LOOP HVAC ZONE SPLITTER 16,NODE 197,NODE 199,AIRLOOP AIR_HANDLERS-573_16_BLK
! <#Nodes on Supply Air Path>,<Number of Nodes>
! <Supply Air Path Node>,<Node Type>,<Node Count>,<Node Name>,<AirLoopHVAC Name>
#Nodes on Supply Air Path,2
   Supply Air Path Node,Inlet Node,1,NODE 197,AIRLOOP AIR_HANDLERS-573_16_BLK
   Supply Air Path Node,Outlet Node,2,NODE 199,AIRLOOP AIR_HANDLERS-573_16_BLK
 Supply Air Path,8,AIRLOOP AIR_HANDLERS-573_17_BLK NODE 206 SUPPLY PATH,AIRLOOP AIR_HANDLERS-573_17_BLK
   #Components on Supply Air Path,1
   Supply Air Path Component,1,AIRLOOPHVAC:ZONESPLITTER,AIR LOOP HVAC ZONE SPLITTER 17,AIRLOOP AIR_HANDLERS-573_17_BLK
     #Outlet Nodes on Supply Air Path Component,1
     Supply Air Path Component Nodes,1,AIRLOOPHVAC:ZONESPLITTER,AIR LOOP HVAC ZONE SPLITTER 17,NODE 206,NODE 208,AIRLOOP AIR_HANDLERS-573_17_BLK
! <#Nodes on Supply Air Path>,<Number of Nodes>
! <Supply Air Path Node>,<Node Type>,<Node Count>,<Node Name>,<AirLoopHVAC Name>
#Nodes on Supply Air Path,2
   Supply Air Path Node,Inlet Node,1,NODE 206,AIRLOOP AIR_HANDLERS-573_17_BLK
   Supply Air Path Node,Outlet Node,2,NODE 208,AIRLOOP AIR_HANDLERS-573_17_BLK
 Supply Air Path,9,AIRLOOP AIR_HANDLERS-573_18_BLK NODE 215 SUPPLY PATH,AIRLOOP AIR_HANDLERS-573_18_BLK
   #Components on Supply Air Path,1
   Supply Air Path Component,1,AIRLOOPHVAC:ZONESPLITTER,AIR LOOP HVAC ZONE SPLITTER 18,AIRLOOP AIR_HANDLERS-573_18_BLK
     #Outlet Nodes on Supply Air Path Component,1
     Supply Air Path Component Nodes,1,AIRLOOPHVAC:ZONESPLITTER,AIR LOOP HVAC ZONE SPLITTER 18,NODE 215,NODE 217,AIRLOOP AIR_HANDLERS-573_18_BLK
! <#Nodes on Supply Air Path>,<Number of Nodes>
! <Supply Air Path Node>,<Node Type>,<Node Count>,<Node Name>,<AirLoopHVAC Name>
#Nodes on Supply Air Path,2
   Supply Air Path Node,Inlet Node,1,NODE 215,AIRLOOP AIR_HANDLERS-573_18_BLK
   Supply Air Path Node,Outlet Node,2,NODE 217,AIRLOOP AIR_HANDLERS-573_18_BLK
 Supply Air Path,10,AIRLOOP AIR_HANDLERS-573_19_BLK NODE 224 SUPPLY PATH,AIRLOOP AIR_HANDLERS-573_19_BLK
   #Components on Supply Air Path,1
   Supply Air Path Component,1,AIRLOOPHVAC:ZONESPLITTER,AIR LOOP HVAC ZONE SPLITTER 19,AIRLOOP AIR_HANDLERS-573_19_BLK
     #Outlet Nodes on Supply Air Path Component,1
     Supply Air Path Component Nodes,1,AIRLOOPHVAC:ZONESPLITTER,AIR LOOP HVAC ZONE SPLITTER 19,NODE 224,NODE 226,AIRLOOP AIR_HANDLERS-573_19_BLK
! <#Nodes on Supply Air Path>,<Number of Nodes>
! <Supply Air Path Node>,<Node Type>,<Node Count>,<Node Name>,<AirLoopHVAC Name>
#Nodes on Supply Air Path,2
   Supply Air Path Node,Inlet Node,1,NODE 224,AIRLOOP AIR_HANDLERS-573_19_BLK
   Supply Air Path Node,Outlet Node,2,NODE 226,AIRLOOP AIR_HANDLERS-573_19_BLK
 Supply Air Path,11,AIRLOOP AIR_HANDLERS-573_1_BLK NODE 62 SUPPLY PATH,AIRLOOP AIR_HANDLERS-573_1_BLK
   #Components on Supply Air Path,1
   Supply Air Path Component,1,AIRLOOPHVAC:ZONESPLITTER,AIR LOOP HVAC ZONE SPLITTER 1,AIRLOOP AIR_HANDLERS-573_1_BLK
     #Outlet Nodes on Supply Air Path Component,1
     Supply Air Path Component Nodes,1,AIRLOOPHVAC:ZONESPLITTER,AIR LOOP HVAC ZONE SPLITTER 1,NODE 62,NODE 64,AIRLOOP AIR_HANDLERS-573_1_BLK
! <#Nodes on Supply Air Path>,<Number of Nodes>
! <Supply Air Path Node>,<Node Type>,<Node Count>,<Node Name>,<AirLoopHVAC Name>
#Nodes on Supply Air Path,2
   Supply Air Path Node,Inlet Node,1,NODE 62,AIRLOOP AIR_HANDLERS-573_1_BLK
   Supply Air Path Node,Outlet Node,2,NODE 64,AIRLOOP AIR_HANDLERS-573_1_BLK
 Supply Air Path,12,AIRLOOP AIR_HANDLERS-573_20_BLK NODE 233 SUPPLY PATH,AIRLOOP AIR_HANDLERS-573_20_BLK
   #Components on Supply Air Path,1
   Supply Air Path Component,1,AIRLOOPHVAC:ZONESPLITTER,AIR LOOP HVAC ZONE SPLITTER 20,AIRLOOP AIR_HANDLERS-573_20_BLK
     #Outlet Nodes on Supply Air Path Component,1
     Supply Air Path Component Nodes,1,AIRLOOPHVAC:ZONESPLITTER,AIR LOOP HVAC ZONE SPLITTER 20,NODE 233,NODE 235,AIRLOOP AIR_HANDLERS-573_20_BLK
! <#Nodes on Supply Air Path>,<Number of Nodes>
! <Supply Air Path Node>,<Node Type>,<Node Count>,<Node Name>,<AirLoopHVAC Name>
#Nodes on Supply Air Path,2
   Supply Air Path Node,Inlet Node,1,NODE 233,AIRLOOP AIR_HANDLERS-573_20_BLK
   Supply Air Path Node,Outlet Node,2,NODE 235,AIRLOOP AIR_HANDLERS-573_20_BLK
 Supply Air Path,13,AIRLOOP AIR_HANDLERS-573_21_BLK NODE 242 SUPPLY PATH,AIRLOOP AIR_HANDLERS-573_21_BLK
   #Components on Supply Air Path,1
   Supply Air Path Component,1,AIRLOOPHVAC:ZONESPLITTER,AIR LOOP HVAC ZONE SPLITTER 21,AIRLOOP AIR_HANDLERS-573_21_BLK
     #Outlet Nodes on Supply Air Path Component,1
     Supply Air Path Component Nodes,1,AIRLOOPHVAC:ZONESPLITTER,AIR LOOP HVAC ZONE SPLITTER 21,NODE 242,NODE 244,AIRLOOP AIR_HANDLERS-573_21_BLK
! <#Nodes on Supply Air Path>,<Number of Nodes>
! <Supply Air Path Node>,<Node Type>,<Node Count>,<Node Name>,<AirLoopHVAC Name>
#Nodes on Supply Air Path,2
   Supply Air Path Node,Inlet Node,1,NODE 242,AIRLOOP AIR_HANDLERS-573_21_BLK
   Supply Air Path Node,Outlet Node,2,NODE 244,AIRLOOP AIR_HANDLERS-573_21_BLK
 Supply Air Path,14,AIRLOOP AIR_HANDLERS-573_22_BLK NODE 251 SUPPLY PATH,AIRLOOP AIR_HANDLERS-573_22_BLK
   #Components on Supply Air Path,1
   Supply Air Path Component,1,AIRLOOPHVAC:ZONESPLITTER,AIR LOOP HVAC ZONE SPLITTER 22,AIRLOOP AIR_HANDLERS-573_22_BLK
     #Outlet Nodes on Supply Air Path Component,1
     Supply Air Path Component Nodes,1,AIRLOOPHVAC:ZONESPLITTER,AIR LOOP HVAC ZONE SPLITTER 22,NODE 251,NODE 253,AIRLOOP AIR_HANDLERS-573_22_BLK
! <#Nodes on Supply Air Path>,<Number of Nodes>
! <Supply Air Path Node>,<Node Type>,<Node Count>,<Node Name>,<AirLoopHVAC Name>
#Nodes on Supply Air Path,2
   Supply Air Path Node,Inlet Node,1,NODE 251,AIRLOOP AIR_HANDLERS-573_22_BLK
   Supply Air Path Node,Outlet Node,2,NODE 253,AIRLOOP AIR_HANDLERS-573_22_BLK
 Supply Air Path,15,AIRLOOP AIR_HANDLERS-573_23_BLK NODE 260 SUPPLY PATH,AIRLOOP AIR_HANDLERS-573_23_BLK
   #Components on Supply Air Path,1
   Supply Air Path Component,1,AIRLOOPHVAC:ZONESPLITTER,AIR LOOP HVAC ZONE SPLITTER 23,AIRLOOP AIR_HANDLERS-573_23_BLK
     #Outlet Nodes on Supply Air Path Component,1
     Supply Air Path Component Nodes,1,AIRLOOPHVAC:ZONESPLITTER,AIR LOOP HVAC ZONE SPLITTER 23,NODE 260,NODE 262,AIRLOOP AIR_HANDLERS-573_23_BLK
! <#Nodes on Supply Air Path>,<Number of Nodes>
! <Supply Air Path Node>,<Node Type>,<Node Count>,<Node Name>,<AirLoopHVAC Name>
#Nodes on Supply Air Path,2
   Supply Air Path Node,Inlet Node,1,NODE 260,AIRLOOP AIR_HANDLERS-573_23_BLK
   Supply Air Path Node,Outlet Node,2,NODE 262,AIRLOOP AIR_HANDLERS-573_23_BLK
 Supply Air Path,16,AIRLOOP AIR_HANDLERS-573_24_BLK NODE 269 SUPPLY PATH,AIRLOOP AIR_HANDLERS-573_24_BLK
   #Components on Supply Air Path,1
   Supply Air Path Component,1,AIRLOOPHVAC:ZONESPLITTER,AIR LOOP HVAC ZONE SPLITTER 24,AIRLOOP AIR_HANDLERS-573_24_BLK
     #Outlet Nodes on Supply Air Path Component,1
     Supply Air Path Component Nodes,1,AIRLOOPHVAC:ZONESPLITTER,AIR LOOP HVAC ZONE SPLITTER 24,NODE 269,NODE 271,AIRLOOP AIR_HANDLERS-573_24_BLK
! <#Nodes on Supply Air Path>,<Number of Nodes>
! <Supply Air Path Node>,<Node Type>,<Node Count>,<Node Name>,<AirLoopHVAC Name>
#Nodes on Supply Air Path,2
   Supply Air Path Node,Inlet Node,1,NODE 269,AIRLOOP AIR_HANDLERS-573_24_BLK
   Supply Air Path Node,Outlet Node,2,NODE 271,AIRLOOP AIR_HANDLERS-573_24_BLK
 Supply Air Path,17,AIRLOOP AIR_HANDLERS-573_25_BLK NODE 278 SUPPLY PATH,AIRLOOP AIR_HANDLERS-573_25_BLK
   #Components on Supply Air Path,1
   Supply Air Path Component,1,AIRLOOPHVAC:ZONESPLITTER,AIR LOOP HVAC ZONE SPLITTER 25,AIRLOOP AIR_HANDLERS-573_25_BLK
     #Outlet Nodes on Supply Air Path Component,1
     Supply Air Path Component Nodes,1,AIRLOOPHVAC:ZONESPLITTER,AIR LOOP HVAC ZONE SPLITTER 25,NODE 278,NODE 280,AIRLOOP AIR_HANDLERS-573_25_BLK
! <#Nodes on Supply Air Path>,<Number of Nodes>
! <Supply Air Path Node>,<Node Type>,<Node Count>,<Node Name>,<AirLoopHVAC Name>
#Nodes on Supply Air Path,2
   Supply Air Path Node,Inlet Node,1,NODE 278,AIRLOOP AIR_HANDLERS-573_25_BLK
   Supply Air Path Node,Outlet Node,2,NODE 280,AIRLOOP AIR_HANDLERS-573_25_BLK
 Supply Air Path,18,AIRLOOP AIR_HANDLERS-573_26_BLK NODE 287 SUPPLY PATH,AIRLOOP AIR_HANDLERS-573_26_BLK
   #Components on Supply Air Path,1
   Supply Air Path Component,1,AIRLOOPHVAC:ZONESPLITTER,AIR LOOP HVAC ZONE SPLITTER 26,AIRLOOP AIR_HANDLERS-573_26_BLK
     #Outlet Nodes on Supply Air Path Component,1
     Supply Air Path Component Nodes,1,AIRLOOPHVAC:ZONESPLITTER,AIR LOOP HVAC ZONE SPLITTER 26,NODE 287,NODE 289,AIRLOOP AIR_HANDLERS-573_26_BLK
! <#Nodes on Supply Air Path>,<Number of Nodes>
! <Supply Air Path Node>,<Node Type>,<Node Count>,<Node Name>,<AirLoopHVAC Name>
#Nodes on Supply Air Path,2
   Supply Air Path Node,Inlet Node,1,NODE 287,AIRLOOP AIR_HANDLERS-573_26_BLK
   Supply Air Path Node,Outlet Node,2,NODE 289,AIRLOOP AIR_HANDLERS-573_26_BLK
 Supply Air Path,19,AIRLOOP AIR_HANDLERS-573_27_BLK NODE 296 SUPPLY PATH,AIRLOOP AIR_HANDLERS-573_27_BLK
   #Components on Supply Air Path,1
   Supply Air Path Component,1,AIRLOOPHVAC:ZONESPLITTER,AIR LOOP HVAC ZONE SPLITTER 27,AIRLOOP AIR_HANDLERS-573_27_BLK
     #Outlet Nodes on Supply Air Path Component,1
     Supply Air Path Component Nodes,1,AIRLOOPHVAC:ZONESPLITTER,AIR LOOP HVAC ZONE SPLITTER 27,NODE 296,NODE 298,AIRLOOP AIR_HANDLERS-573_27_BLK
! <#Nodes on Supply Air Path>,<Number of Nodes>
! <Supply Air Path Node>,<Node Type>,<Node Count>,<Node Name>,<AirLoopHVAC Name>
#Nodes on Supply Air Path,2
   Supply Air Path Node,Inlet Node,1,NODE 296,AIRLOOP AIR_HANDLERS-573_27_BLK
   Supply Air Path Node,Outlet Node,2,NODE 298,AIRLOOP AIR_HANDLERS-573_27_BLK
 Supply Air Path,20,AIRLOOP AIR_HANDLERS-573_28_BLK NODE 305 SUPPLY PATH,AIRLOOP AIR_HANDLERS-573_28_BLK
   #Components on Supply Air Path,1
   Supply Air Path Component,1,AIRLOOPHVAC:ZONESPLITTER,AIR LOOP HVAC ZONE SPLITTER 28,AIRLOOP AIR_HANDLERS-573_28_BLK
     #Outlet Nodes on Supply Air Path Component,1
     Supply Air Path Component Nodes,1,AIRLOOPHVAC:ZONESPLITTER,AIR LOOP HVAC ZONE SPLITTER 28,NODE 305,NODE 307,AIRLOOP AIR_HANDLERS-573_28_BLK
! <#Nodes on Supply Air Path>,<Number of Nodes>
! <Supply Air Path Node>,<Node Type>,<Node Count>,<Node Name>,<AirLoopHVAC Name>
#Nodes on Supply Air Path,2
   Supply Air Path Node,Inlet Node,1,NODE 305,AIRLOOP AIR_HANDLERS-573_28_BLK
   Supply Air Path Node,Outlet Node,2,NODE 307,AIRLOOP AIR_HANDLERS-573_28_BLK
 Supply Air Path,21,AIRLOOP AIR_HANDLERS-573_29_BLK NODE 314 SUPPLY PATH,AIRLOOP AIR_HANDLERS-573_29_BLK
   #Components on Supply Air Path,1
   Supply Air Path Component,1,AIRLOOPHVAC:ZONESPLITTER,AIR LOOP HVAC ZONE SPLITTER 29,AIRLOOP AIR_HANDLERS-573_29_BLK
     #Outlet Nodes on Supply Air Path Component,1
     Supply Air Path Component Nodes,1,AIRLOOPHVAC:ZONESPLITTER,AIR LOOP HVAC ZONE SPLITTER 29,NODE 314,NODE 316,AIRLOOP AIR_HANDLERS-573_29_BLK
! <#Nodes on Supply Air Path>,<Number of Nodes>
! <Supply Air Path Node>,<Node Type>,<Node Count>,<Node Name>,<AirLoopHVAC Name>
#Nodes on Supply Air Path,2
   Supply Air Path Node,Inlet Node,1,NODE 314,AIRLOOP AIR_HANDLERS-573_29_BLK
   Supply Air Path Node,Outlet Node,2,NODE 316,AIRLOOP AIR_HANDLERS-573_29_BLK
 Supply Air Path,22,AIRLOOP AIR_HANDLERS-573_2_BLK NODE 71 SUPPLY PATH,AIRLOOP AIR_HANDLERS-573_2_BLK
   #Components on Supply Air Path,1
   Supply Air Path Component,1,AIRLOOPHVAC:ZONESPLITTER,AIR LOOP HVAC ZONE SPLITTER 2,AIRLOOP AIR_HANDLERS-573_2_BLK
     #Outlet Nodes on Supply Air Path Component,1
     Supply Air Path Component Nodes,1,AIRLOOPHVAC:ZONESPLITTER,AIR LOOP HVAC ZONE SPLITTER 2,NODE 71,NODE 73,AIRLOOP AIR_HANDLERS-573_2_BLK
! <#Nodes on Supply Air Path>,<Number of Nodes>
! <Supply Air Path Node>,<Node Type>,<Node Count>,<Node Name>,<AirLoopHVAC Name>
#Nodes on Supply Air Path,2
   Supply Air Path Node,Inlet Node,1,NODE 71,AIRLOOP AIR_HANDLERS-573_2_BLK
   Supply Air Path Node,Outlet Node,2,NODE 73,AIRLOOP AIR_HANDLERS-573_2_BLK
 Supply Air Path,23,AIRLOOP AIR_HANDLERS-573_30_BLK NODE 323 SUPPLY PATH,AIRLOOP AIR_HANDLERS-573_30_BLK
   #Components on Supply Air Path,1
   Supply Air Path Component,1,AIRLOOPHVAC:ZONESPLITTER,AIR LOOP HVAC ZONE SPLITTER 30,AIRLOOP AIR_HANDLERS-573_30_BLK
     #Outlet Nodes on Supply Air Path Component,1
     Supply Air Path Component Nodes,1,AIRLOOPHVAC:ZONESPLITTER,AIR LOOP HVAC ZONE SPLITTER 30,NODE 323,NODE 325,AIRLOOP AIR_HANDLERS-573_30_BLK
! <#Nodes on Supply Air Path>,<Number of Nodes>
! <Supply Air Path Node>,<Node Type>,<Node Count>,<Node Name>,<AirLoopHVAC Name>
#Nodes on Supply Air Path,2
   Supply Air Path Node,Inlet Node,1,NODE 323,AIRLOOP AIR_HANDLERS-573_30_BLK
   Supply Air Path Node,Outlet Node,2,NODE 325,AIRLOOP AIR_HANDLERS-573_30_BLK
 Supply Air Path,24,AIRLOOP AIR_HANDLERS-573_31_BLK NODE 332 SUPPLY PATH,AIRLOOP AIR_HANDLERS-573_31_BLK
   #Components on Supply Air Path,1
   Supply Air Path Component,1,AIRLOOPHVAC:ZONESPLITTER,AIR LOOP HVAC ZONE SPLITTER 31,AIRLOOP AIR_HANDLERS-573_31_BLK
     #Outlet Nodes on Supply Air Path Component,1
     Supply Air Path Component Nodes,1,AIRLOOPHVAC:ZONESPLITTER,AIR LOOP HVAC ZONE SPLITTER 31,NODE 332,NODE 334,AIRLOOP AIR_HANDLERS-573_31_BLK
! <#Nodes on Supply Air Path>,<Number of Nodes>
! <Supply Air Path Node>,<Node Type>,<Node Count>,<Node Name>,<AirLoopHVAC Name>
#Nodes on Supply Air Path,2
   Supply Air Path Node,Inlet Node,1,NODE 332,AIRLOOP AIR_HANDLERS-573_31_BLK
   Supply Air Path Node,Outlet Node,2,NODE 334,AIRLOOP AIR_HANDLERS-573_31_BLK
 Supply Air Path,25,AIRLOOP AIR_HANDLERS-573_32_BLK NODE 341 SUPPLY PATH,AIRLOOP AIR_HANDLERS-573_32_BLK
   #Components on Supply Air Path,1
   Supply Air Path Component,1,AIRLOOPHVAC:ZONESPLITTER,AIR LOOP HVAC ZONE SPLITTER 32,AIRLOOP AIR_HANDLERS-573_32_BLK
     #Outlet Nodes on Supply Air Path Component,1
     Supply Air Path Component Nodes,1,AIRLOOPHVAC:ZONESPLITTER,AIR LOOP HVAC ZONE SPLITTER 32,NODE 341,NODE 343,AIRLOOP AIR_HANDLERS-573_32_BLK
! <#Nodes on Supply Air Path>,<Number of Nodes>
! <Supply Air Path Node>,<Node Type>,<Node Count>,<Node Name>,<AirLoopHVAC Name>
#Nodes on Supply Air Path,2
   Supply Air Path Node,Inlet Node,1,NODE 341,AIRLOOP AIR_HANDLERS-573_32_BLK
   Supply Air Path Node,Outlet Node,2,NODE 343,AIRLOOP AIR_HANDLERS-573_32_BLK
 Supply Air Path,26,AIRLOOP AIR_HANDLERS-573_33_BLK NODE 350 SUPPLY PATH,AIRLOOP AIR_HANDLERS-573_33_BLK
   #Components on Supply Air Path,1
   Supply Air Path Component,1,AIRLOOPHVAC:ZONESPLITTER,AIR LOOP HVAC ZONE SPLITTER 33,AIRLOOP AIR_HANDLERS-573_33_BLK
     #Outlet Nodes on Supply Air Path Component,1
     Supply Air Path Component Nodes,1,AIRLOOPHVAC:ZONESPLITTER,AIR LOOP HVAC ZONE SPLITTER 33,NODE 350,NODE 352,AIRLOOP AIR_HANDLERS-573_33_BLK
! <#Nodes on Supply Air Path>,<Number of Nodes>
! <Supply Air Path Node>,<Node Type>,<Node Count>,<Node Name>,<AirLoopHVAC Name>
#Nodes on Supply Air Path,2
   Supply Air Path Node,Inlet Node,1,NODE 350,AIRLOOP AIR_HANDLERS-573_33_BLK
   Supply Air Path Node,Outlet Node,2,NODE 352,AIRLOOP AIR_HANDLERS-573_33_BLK
 Supply Air Path,27,AIRLOOP AIR_HANDLERS-573_34_BLK NODE 359 SUPPLY PATH,AIRLOOP AIR_HANDLERS-573_34_BLK
   #Components on Supply Air Path,1
   Supply Air Path Component,1,AIRLOOPHVAC:ZONESPLITTER,AIR LOOP HVAC ZONE SPLITTER 34,AIRLOOP AIR_HANDLERS-573_34_BLK
     #Outlet Nodes on Supply Air Path Component,1
     Supply Air Path Component Nodes,1,AIRLOOPHVAC:ZONESPLITTER,AIR LOOP HVAC ZONE SPLITTER 34,NODE 359,NODE 361,AIRLOOP AIR_HANDLERS-573_34_BLK
! <#Nodes on Supply Air Path>,<Number of Nodes>
! <Supply Air Path Node>,<Node Type>,<Node Count>,<Node Name>,<AirLoopHVAC Name>
#Nodes on Supply Air Path,2
   Supply Air Path Node,Inlet Node,1,NODE 359,AIRLOOP AIR_HANDLERS-573_34_BLK
   Supply Air Path Node,Outlet Node,2,NODE 361,AIRLOOP AIR_HANDLERS-573_34_BLK
 Supply Air Path,28,AIRLOOP AIR_HANDLERS-573_35_BLK NODE 368 SUPPLY PATH,AIRLOOP AIR_HANDLERS-573_35_BLK
   #Components on Supply Air Path,1
   Supply Air Path Component,1,AIRLOOPHVAC:ZONESPLITTER,AIR LOOP HVAC ZONE SPLITTER 35,AIRLOOP AIR_HANDLERS-573_35_BLK
     #Outlet Nodes on Supply Air Path Component,1
     Supply Air Path Component Nodes,1,AIRLOOPHVAC:ZONESPLITTER,AIR LOOP HVAC ZONE SPLITTER 35,NODE 368,NODE 370,AIRLOOP AIR_HANDLERS-573_35_BLK
! <#Nodes on Supply Air Path>,<Number of Nodes>
! <Supply Air Path Node>,<Node Type>,<Node Count>,<Node Name>,<AirLoopHVAC Name>
#Nodes on Supply Air Path,2
   Supply Air Path Node,Inlet Node,1,NODE 368,AIRLOOP AIR_HANDLERS-573_35_BLK
   Supply Air Path Node,Outlet Node,2,NODE 370,AIRLOOP AIR_HANDLERS-573_35_BLK
 Supply Air Path,29,AIRLOOP AIR_HANDLERS-573_36_BLK NODE 377 SUPPLY PATH,AIRLOOP AIR_HANDLERS-573_36_BLK
   #Components on Supply Air Path,1
   Supply Air Path Component,1,AIRLOOPHVAC:ZONESPLITTER,AIR LOOP HVAC ZONE SPLITTER 36,AIRLOOP AIR_HANDLERS-573_36_BLK
     #Outlet Nodes on Supply Air Path Component,1
     Supply Air Path Component Nodes,1,AIRLOOPHVAC:ZONESPLITTER,AIR LOOP HVAC ZONE SPLITTER 36,NODE 377,NODE 379,AIRLOOP AIR_HANDLERS-573_36_BLK
! <#Nodes on Supply Air Path>,<Number of Nodes>
! <Supply Air Path Node>,<Node Type>,<Node Count>,<Node Name>,<AirLoopHVAC Name>
#Nodes on Supply Air Path,2
   Supply Air Path Node,Inlet Node,1,NODE 377,AIRLOOP AIR_HANDLERS-573_36_BLK
   Supply Air Path Node,Outlet Node,2,NODE 379,AIRLOOP AIR_HANDLERS-573_36_BLK
 Supply Air Path,30,AIRLOOP AIR_HANDLERS-573_37_BLK NODE 386 SUPPLY PATH,AIRLOOP AIR_HANDLERS-573_37_BLK
   #Components on Supply Air Path,1
   Supply Air Path Component,1,AIRLOOPHVAC:ZONESPLITTER,AIR LOOP HVAC ZONE SPLITTER 37,AIRLOOP AIR_HANDLERS-573_37_BLK
     #Outlet Nodes on Supply Air Path Component,1
     Supply Air Path Component Nodes,1,AIRLOOPHVAC:ZONESPLITTER,AIR LOOP HVAC ZONE SPLITTER 37,NODE 386,NODE 388,AIRLOOP AIR_HANDLERS-573_37_BLK
! <#Nodes on Supply Air Path>,<Number of Nodes>
! <Supply Air Path Node>,<Node Type>,<Node Count>,<Node Name>,<AirLoopHVAC Name>
#Nodes on Supply Air Path,2
   Supply Air Path Node,Inlet Node,1,NODE 386,AIRLOOP AIR_HANDLERS-573_37_BLK
   Supply Air Path Node,Outlet Node,2,NODE 388,AIRLOOP AIR_HANDLERS-573_37_BLK
 Supply Air Path,31,AIRLOOP AIR_HANDLERS-573_38_BLK NODE 395 SUPPLY PATH,AIRLOOP AIR_HANDLERS-573_38_BLK
   #Components on Supply Air Path,1
   Supply Air Path Component,1,AIRLOOPHVAC:ZONESPLITTER,AIR LOOP HVAC ZONE SPLITTER 38,AIRLOOP AIR_HANDLERS-573_38_BLK
     #Outlet Nodes on Supply Air Path Component,1
     Supply Air Path Component Nodes,1,AIRLOOPHVAC:ZONESPLITTER,AIR LOOP HVAC ZONE SPLITTER 38,NODE 395,NODE 397,AIRLOOP AIR_HANDLERS-573_38_BLK
! <#Nodes on Supply Air Path>,<Number of Nodes>
! <Supply Air Path Node>,<Node Type>,<Node Count>,<Node Name>,<AirLoopHVAC Name>
#Nodes on Supply Air Path,2
   Supply Air Path Node,Inlet Node,1,NODE 395,AIRLOOP AIR_HANDLERS-573_38_BLK
   Supply Air Path Node,Outlet Node,2,NODE 397,AIRLOOP AIR_HANDLERS-573_38_BLK
 Supply Air Path,32,AIRLOOP AIR_HANDLERS-573_39_BLK NODE 404 SUPPLY PATH,AIRLOOP AIR_HANDLERS-573_39_BLK
   #Components on Supply Air Path,1
   Supply Air Path Component,1,AIRLOOPHVAC:ZONESPLITTER,AIR LOOP HVAC ZONE SPLITTER 39,AIRLOOP AIR_HANDLERS-573_39_BLK
     #Outlet Nodes on Supply Air Path Component,1
     Supply Air Path Component Nodes,1,AIRLOOPHVAC:ZONESPLITTER,AIR LOOP HVAC ZONE SPLITTER 39,NODE 404,NODE 406,AIRLOOP AIR_HANDLERS-573_39_BLK
! <#Nodes on Supply Air Path>,<Number of Nodes>
! <Supply Air Path Node>,<Node Type>,<Node Count>,<Node Name>,<AirLoopHVAC Name>
#Nodes on Supply Air Path,2
   Supply Air Path Node,Inlet Node,1,NODE 404,AIRLOOP AIR_HANDLERS-573_39_BLK
   Supply Air Path Node,Outlet Node,2,NODE 406,AIRLOOP AIR_HANDLERS-573_39_BLK
 Supply Air Path,33,AIRLOOP AIR_HANDLERS-573_3_BLK NODE 80 SUPPLY PATH,AIRLOOP AIR_HANDLERS-573_3_BLK
   #Components on Supply Air Path,1
   Supply Air Path Component,1,AIRLOOPHVAC:ZONESPLITTER,AIR LOOP HVAC ZONE SPLITTER 3,AIRLOOP AIR_HANDLERS-573_3_BLK
     #Outlet Nodes on Supply Air Path Component,1
     Supply Air Path Component Nodes,1,AIRLOOPHVAC:ZONESPLITTER,AIR LOOP HVAC ZONE SPLITTER 3,NODE 80,NODE 82,AIRLOOP AIR_HANDLERS-573_3_BLK
! <#Nodes on Supply Air Path>,<Number of Nodes>
! <Supply Air Path Node>,<Node Type>,<Node Count>,<Node Name>,<AirLoopHVAC Name>
#Nodes on Supply Air Path,2
   Supply Air Path Node,Inlet Node,1,NODE 80,AIRLOOP AIR_HANDLERS-573_3_BLK
   Supply Air Path Node,Outlet Node,2,NODE 82,AIRLOOP AIR_HANDLERS-573_3_BLK
 Supply Air Path,34,AIRLOOP AIR_HANDLERS-573_40_BLK NODE 413 SUPPLY PATH,AIRLOOP AIR_HANDLERS-573_40_BLK
   #Components on Supply Air Path,1
   Supply Air Path Component,1,AIRLOOPHVAC:ZONESPLITTER,AIR LOOP HVAC ZONE SPLITTER 40,AIRLOOP AIR_HANDLERS-573_40_BLK
     #Outlet Nodes on Supply Air Path Component,1
     Supply Air Path Component Nodes,1,AIRLOOPHVAC:ZONESPLITTER,AIR LOOP HVAC ZONE SPLITTER 40,NODE 413,NODE 415,AIRLOOP AIR_HANDLERS-573_40_BLK
! <#Nodes on Supply Air Path>,<Number of Nodes>
! <Supply Air Path Node>,<Node Type>,<Node Count>,<Node Name>,<AirLoopHVAC Name>
#Nodes on Supply Air Path,2
   Supply Air Path Node,Inlet Node,1,NODE 413,AIRLOOP AIR_HANDLERS-573_40_BLK
   Supply Air Path Node,Outlet Node,2,NODE 415,AIRLOOP AIR_HANDLERS-573_40_BLK
 Supply Air Path,35,AIRLOOP AIR_HANDLERS-573_41_BLK NODE 422 SUPPLY PATH,AIRLOOP AIR_HANDLERS-573_41_BLK
   #Components on Supply Air Path,1
   Supply Air Path Component,1,AIRLOOPHVAC:ZONESPLITTER,AIR LOOP HVAC ZONE SPLITTER 41,AIRLOOP AIR_HANDLERS-573_41_BLK
     #Outlet Nodes on Supply Air Path Component,1
     Supply Air Path Component Nodes,1,AIRLOOPHVAC:ZONESPLITTER,AIR LOOP HVAC ZONE SPLITTER 41,NODE 422,NODE 424,AIRLOOP AIR_HANDLERS-573_41_BLK
! <#Nodes on Supply Air Path>,<Number of Nodes>
! <Supply Air Path Node>,<Node Type>,<Node Count>,<Node Name>,<AirLoopHVAC Name>
#Nodes on Supply Air Path,2
   Supply Air Path Node,Inlet Node,1,NODE 422,AIRLOOP AIR_HANDLERS-573_41_BLK
   Supply Air Path Node,Outlet Node,2,NODE 424,AIRLOOP AIR_HANDLERS-573_41_BLK
 Supply Air Path,36,AIRLOOP AIR_HANDLERS-573_42_BLK NODE 431 SUPPLY PATH,AIRLOOP AIR_HANDLERS-573_42_BLK
   #Components on Supply Air Path,1
   Supply Air Path Component,1,AIRLOOPHVAC:ZONESPLITTER,AIR LOOP HVAC ZONE SPLITTER 42,AIRLOOP AIR_HANDLERS-573_42_BLK
     #Outlet Nodes on Supply Air Path Component,1
     Supply Air Path Component Nodes,1,AIRLOOPHVAC:ZONESPLITTER,AIR LOOP HVAC ZONE SPLITTER 42,NODE 431,NODE 433,AIRLOOP AIR_HANDLERS-573_42_BLK
! <#Nodes on Supply Air Path>,<Number of Nodes>
! <Supply Air Path Node>,<Node Type>,<Node Count>,<Node Name>,<AirLoopHVAC Name>
#Nodes on Supply Air Path,2
   Supply Air Path Node,Inlet Node,1,NODE 431,AIRLOOP AIR_HANDLERS-573_42_BLK
   Supply Air Path Node,Outlet Node,2,NODE 433,AIRLOOP AIR_HANDLERS-573_42_BLK
 Supply Air Path,37,AIRLOOP AIR_HANDLERS-573_43_BLK NODE 440 SUPPLY PATH,AIRLOOP AIR_HANDLERS-573_43_BLK
   #Components on Supply Air Path,1
   Supply Air Path Component,1,AIRLOOPHVAC:ZONESPLITTER,AIR LOOP HVAC ZONE SPLITTER 43,AIRLOOP AIR_HANDLERS-573_43_BLK
     #Outlet Nodes on Supply Air Path Component,1
     Supply Air Path Component Nodes,1,AIRLOOPHVAC:ZONESPLITTER,AIR LOOP HVAC ZONE SPLITTER 43,NODE 440,NODE 442,AIRLOOP AIR_HANDLERS-573_43_BLK
! <#Nodes on Supply Air Path>,<Number of Nodes>
! <Supply Air Path Node>,<Node Type>,<Node Count>,<Node Name>,<AirLoopHVAC Name>
#Nodes on Supply Air Path,2
   Supply Air Path Node,Inlet Node,1,NODE 440,AIRLOOP AIR_HANDLERS-573_43_BLK
   Supply Air Path Node,Outlet Node,2,NODE 442,AIRLOOP AIR_HANDLERS-573_43_BLK
 Supply Air Path,38,AIRLOOP AIR_HANDLERS-573_44_BLK NODE 449 SUPPLY PATH,AIRLOOP AIR_HANDLERS-573_44_BLK
   #Components on Supply Air Path,1
   Supply Air Path Component,1,AIRLOOPHVAC:ZONESPLITTER,AIR LOOP HVAC ZONE SPLITTER 44,AIRLOOP AIR_HANDLERS-573_44_BLK
     #Outlet Nodes on Supply Air Path Component,1
     Supply Air Path Component Nodes,1,AIRLOOPHVAC:ZONESPLITTER,AIR LOOP HVAC ZONE SPLITTER 44,NODE 449,NODE 451,AIRLOOP AIR_HANDLERS-573_44_BLK
! <#Nodes on Supply Air Path>,<Number of Nodes>
! <Supply Air Path Node>,<Node Type>,<Node Count>,<Node Name>,<AirLoopHVAC Name>
#Nodes on Supply Air Path,2
   Supply Air Path Node,Inlet Node,1,NODE 449,AIRLOOP AIR_HANDLERS-573_44_BLK
   Supply Air Path Node,Outlet Node,2,NODE 451,AIRLOOP AIR_HANDLERS-573_44_BLK
 Supply Air Path,39,AIRLOOP AIR_HANDLERS-573_45_BLK NODE 458 SUPPLY PATH,AIRLOOP AIR_HANDLERS-573_45_BLK
   #Components on Supply Air Path,1
   Supply Air Path Component,1,AIRLOOPHVAC:ZONESPLITTER,AIR LOOP HVAC ZONE SPLITTER 45,AIRLOOP AIR_HANDLERS-573_45_BLK
     #Outlet Nodes on Supply Air Path Component,1
     Supply Air Path Component Nodes,1,AIRLOOPHVAC:ZONESPLITTER,AIR LOOP HVAC ZONE SPLITTER 45,NODE 458,NODE 460,AIRLOOP AIR_HANDLERS-573_45_BLK
! <#Nodes on Supply Air Path>,<Number of Nodes>
! <Supply Air Path Node>,<Node Type>,<Node Count>,<Node Name>,<AirLoopHVAC Name>
#Nodes on Supply Air Path,2
   Supply Air Path Node,Inlet Node,1,NODE 458,AIRLOOP AIR_HANDLERS-573_45_BLK
   Supply Air Path Node,Outlet Node,2,NODE 460,AIRLOOP AIR_HANDLERS-573_45_BLK
 Supply Air Path,40,AIRLOOP AIR_HANDLERS-573_46_BLK NODE 467 SUPPLY PATH,AIRLOOP AIR_HANDLERS-573_46_BLK
   #Components on Supply Air Path,1
   Supply Air Path Component,1,AIRLOOPHVAC:ZONESPLITTER,AIR LOOP HVAC ZONE SPLITTER 46,AIRLOOP AIR_HANDLERS-573_46_BLK
     #Outlet Nodes on Supply Air Path Component,1
     Supply Air Path Component Nodes,1,AIRLOOPHVAC:ZONESPLITTER,AIR LOOP HVAC ZONE SPLITTER 46,NODE 467,NODE 469,AIRLOOP AIR_HANDLERS-573_46_BLK
! <#Nodes on Supply Air Path>,<Number of Nodes>
! <Supply Air Path Node>,<Node Type>,<Node Count>,<Node Name>,<AirLoopHVAC Name>
#Nodes on Supply Air Path,2
   Supply Air Path Node,Inlet Node,1,NODE 467,AIRLOOP AIR_HANDLERS-573_46_BLK
   Supply Air Path Node,Outlet Node,2,NODE 469,AIRLOOP AIR_HANDLERS-573_46_BLK
 Supply Air Path,41,AIRLOOP AIR_HANDLERS-573_47_BLK NODE 476 SUPPLY PATH,AIRLOOP AIR_HANDLERS-573_47_BLK
   #Components on Supply Air Path,1
   Supply Air Path Component,1,AIRLOOPHVAC:ZONESPLITTER,AIR LOOP HVAC ZONE SPLITTER 47,AIRLOOP AIR_HANDLERS-573_47_BLK
     #Outlet Nodes on Supply Air Path Component,1
     Supply Air Path Component Nodes,1,AIRLOOPHVAC:ZONESPLITTER,AIR LOOP HVAC ZONE SPLITTER 47,NODE 476,NODE 478,AIRLOOP AIR_HANDLERS-573_47_BLK
! <#Nodes on Supply Air Path>,<Number of Nodes>
! <Supply Air Path Node>,<Node Type>,<Node Count>,<Node Name>,<AirLoopHVAC Name>
#Nodes on Supply Air Path,2
   Supply Air Path Node,Inlet Node,1,NODE 476,AIRLOOP AIR_HANDLERS-573_47_BLK
   Supply Air Path Node,Outlet Node,2,NODE 478,AIRLOOP AIR_HANDLERS-573_47_BLK
 Supply Air Path,42,AIRLOOP AIR_HANDLERS-573_48_BLK NODE 485 SUPPLY PATH,AIRLOOP AIR_HANDLERS-573_48_BLK
   #Components on Supply Air Path,1
   Supply Air Path Component,1,AIRLOOPHVAC:ZONESPLITTER,AIR LOOP HVAC ZONE SPLITTER 48,AIRLOOP AIR_HANDLERS-573_48_BLK
     #Outlet Nodes on Supply Air Path Component,1
     Supply Air Path Component Nodes,1,AIRLOOPHVAC:ZONESPLITTER,AIR LOOP HVAC ZONE SPLITTER 48,NODE 485,NODE 487,AIRLOOP AIR_HANDLERS-573_48_BLK
! <#Nodes on Supply Air Path>,<Number of Nodes>
! <Supply Air Path Node>,<Node Type>,<Node Count>,<Node Name>,<AirLoopHVAC Name>
#Nodes on Supply Air Path,2
   Supply Air Path Node,Inlet Node,1,NODE 485,AIRLOOP AIR_HANDLERS-573_48_BLK
   Supply Air Path Node,Outlet Node,2,NODE 487,AIRLOOP AIR_HANDLERS-573_48_BLK
 Supply Air Path,43,AIRLOOP AIR_HANDLERS-573_49_BLK NODE 494 SUPPLY PATH,AIRLOOP AIR_HANDLERS-573_49_BLK
   #Components on Supply Air Path,1
   Supply Air Path Component,1,AIRLOOPHVAC:ZONESPLITTER,AIR LOOP HVAC ZONE SPLITTER 49,AIRLOOP AIR_HANDLERS-573_49_BLK
     #Outlet Nodes on Supply Air Path Component,1
     Supply Air Path Component Nodes,1,AIRLOOPHVAC:ZONESPLITTER,AIR LOOP HVAC ZONE SPLITTER 49,NODE 494,NODE 496,AIRLOOP AIR_HANDLERS-573_49_BLK
! <#Nodes on Supply Air Path>,<Number of Nodes>
! <Supply Air Path Node>,<Node Type>,<Node Count>,<Node Name>,<AirLoopHVAC Name>
#Nodes on Supply Air Path,2
   Supply Air Path Node,Inlet Node,1,NODE 494,AIRLOOP AIR_HANDLERS-573_49_BLK
   Supply Air Path Node,Outlet Node,2,NODE 496,AIRLOOP AIR_HANDLERS-573_49_BLK
 Supply Air Path,44,AIRLOOP AIR_HANDLERS-573_4_BLK NODE 89 SUPPLY PATH,AIRLOOP AIR_HANDLERS-573_4_BLK
   #Components on Supply Air Path,1
   Supply Air Path Component,1,AIRLOOPHVAC:ZONESPLITTER,AIR LOOP HVAC ZONE SPLITTER 4,AIRLOOP AIR_HANDLERS-573_4_BLK
     #Outlet Nodes on Supply Air Path Component,1
     Supply Air Path Component Nodes,1,AIRLOOPHVAC:ZONESPLITTER,AIR LOOP HVAC ZONE SPLITTER 4,NODE 89,NODE 91,AIRLOOP AIR_HANDLERS-573_4_BLK
! <#Nodes on Supply Air Path>,<Number of Nodes>
! <Supply Air Path Node>,<Node Type>,<Node Count>,<Node Name>,<AirLoopHVAC Name>
#Nodes on Supply Air Path,2
   Supply Air Path Node,Inlet Node,1,NODE 89,AIRLOOP AIR_HANDLERS-573_4_BLK
   Supply Air Path Node,Outlet Node,2,NODE 91,AIRLOOP AIR_HANDLERS-573_4_BLK
 Supply Air Path,45,AIRLOOP AIR_HANDLERS-573_50_BLK NODE 503 SUPPLY PATH,AIRLOOP AIR_HANDLERS-573_50_BLK
   #Components on Supply Air Path,1
   Supply Air Path Component,1,AIRLOOPHVAC:ZONESPLITTER,AIR LOOP HVAC ZONE SPLITTER 50,AIRLOOP AIR_HANDLERS-573_50_BLK
     #Outlet Nodes on Supply Air Path Component,1
     Supply Air Path Component Nodes,1,AIRLOOPHVAC:ZONESPLITTER,AIR LOOP HVAC ZONE SPLITTER 50,NODE 503,NODE 505,AIRLOOP AIR_HANDLERS-573_50_BLK
! <#Nodes on Supply Air Path>,<Number of Nodes>
! <Supply Air Path Node>,<Node Type>,<Node Count>,<Node Name>,<AirLoopHVAC Name>
#Nodes on Supply Air Path,2
   Supply Air Path Node,Inlet Node,1,NODE 503,AIRLOOP AIR_HANDLERS-573_50_BLK
   Supply Air Path Node,Outlet Node,2,NODE 505,AIRLOOP AIR_HANDLERS-573_50_BLK
 Supply Air Path,46,AIRLOOP AIR_HANDLERS-573_5_BLK NODE 98 SUPPLY PATH,AIRLOOP AIR_HANDLERS-573_5_BLK
   #Components on Supply Air Path,1
   Supply Air Path Component,1,AIRLOOPHVAC:ZONESPLITTER,AIR LOOP HVAC ZONE SPLITTER 5,AIRLOOP AIR_HANDLERS-573_5_BLK
     #Outlet Nodes on Supply Air Path Component,1
     Supply Air Path Component Nodes,1,AIRLOOPHVAC:ZONESPLITTER,AIR LOOP HVAC ZONE SPLITTER 5,NODE 98,NODE 100,AIRLOOP AIR_HANDLERS-573_5_BLK
! <#Nodes on Supply Air Path>,<Number of Nodes>
! <Supply Air Path Node>,<Node Type>,<Node Count>,<Node Name>,<AirLoopHVAC Name>
#Nodes on Supply Air Path,2
   Supply Air Path Node,Inlet Node,1,NODE 98,AIRLOOP AIR_HANDLERS-573_5_BLK
   Supply Air Path Node,Outlet Node,2,NODE 100,AIRLOOP AIR_HANDLERS-573_5_BLK
 Supply Air Path,47,AIRLOOP AIR_HANDLERS-573_6_BLK NODE 107 SUPPLY PATH,AIRLOOP AIR_HANDLERS-573_6_BLK
   #Components on Supply Air Path,1
   Supply Air Path Component,1,AIRLOOPHVAC:ZONESPLITTER,AIR LOOP HVAC ZONE SPLITTER 6,AIRLOOP AIR_HANDLERS-573_6_BLK
     #Outlet Nodes on Supply Air Path Component,1
     Supply Air Path Component Nodes,1,AIRLOOPHVAC:ZONESPLITTER,AIR LOOP HVAC ZONE SPLITTER 6,NODE 107,NODE 109,AIRLOOP AIR_HANDLERS-573_6_BLK
! <#Nodes on Supply Air Path>,<Number of Nodes>
! <Supply Air Path Node>,<Node Type>,<Node Count>,<Node Name>,<AirLoopHVAC Name>
#Nodes on Supply Air Path,2
   Supply Air Path Node,Inlet Node,1,NODE 107,AIRLOOP AIR_HANDLERS-573_6_BLK
   Supply Air Path Node,Outlet Node,2,NODE 109,AIRLOOP AIR_HANDLERS-573_6_BLK
 Supply Air Path,48,AIRLOOP AIR_HANDLERS-573_7_BLK NODE 116 SUPPLY PATH,AIRLOOP AIR_HANDLERS-573_7_BLK
   #Components on Supply Air Path,1
   Supply Air Path Component,1,AIRLOOPHVAC:ZONESPLITTER,AIR LOOP HVAC ZONE SPLITTER 7,AIRLOOP AIR_HANDLERS-573_7_BLK
     #Outlet Nodes on Supply Air Path Component,1
     Supply Air Path Component Nodes,1,AIRLOOPHVAC:ZONESPLITTER,AIR LOOP HVAC ZONE SPLITTER 7,NODE 116,NODE 118,AIRLOOP AIR_HANDLERS-573_7_BLK
! <#Nodes on Supply Air Path>,<Number of Nodes>
! <Supply Air Path Node>,<Node Type>,<Node Count>,<Node Name>,<AirLoopHVAC Name>
#Nodes on Supply Air Path,2
   Supply Air Path Node,Inlet Node,1,NODE 116,AIRLOOP AIR_HANDLERS-573_7_BLK
   Supply Air Path Node,Outlet Node,2,NODE 118,AIRLOOP AIR_HANDLERS-573_7_BLK
 Supply Air Path,49,AIRLOOP AIR_HANDLERS-573_8_BLK NODE 125 SUPPLY PATH,AIRLOOP AIR_HANDLERS-573_8_BLK
   #Components on Supply Air Path,1
   Supply Air Path Component,1,AIRLOOPHVAC:ZONESPLITTER,AIR LOOP HVAC ZONE SPLITTER 8,AIRLOOP AIR_HANDLERS-573_8_BLK
     #Outlet Nodes on Supply Air Path Component,1
     Supply Air Path Component Nodes,1,AIRLOOPHVAC:ZONESPLITTER,AIR LOOP HVAC ZONE SPLITTER 8,NODE 125,NODE 127,AIRLOOP AIR_HANDLERS-573_8_BLK
! <#Nodes on Supply Air Path>,<Number of Nodes>
! <Supply Air Path Node>,<Node Type>,<Node Count>,<Node Name>,<AirLoopHVAC Name>
#Nodes on Supply Air Path,2
   Supply Air Path Node,Inlet Node,1,NODE 125,AIRLOOP AIR_HANDLERS-573_8_BLK
   Supply Air Path Node,Outlet Node,2,NODE 127,AIRLOOP AIR_HANDLERS-573_8_BLK
 Supply Air Path,50,AIRLOOP AIR_HANDLERS-573_9_BLK NODE 134 SUPPLY PATH,AIRLOOP AIR_HANDLERS-573_9_BLK
   #Components on Supply Air Path,1
   Supply Air Path Component,1,AIRLOOPHVAC:ZONESPLITTER,AIR LOOP HVAC ZONE SPLITTER 9,AIRLOOP AIR_HANDLERS-573_9_BLK
     #Outlet Nodes on Supply Air Path Component,1
     Supply Air Path Component Nodes,1,AIRLOOPHVAC:ZONESPLITTER,AIR LOOP HVAC ZONE SPLITTER 9,NODE 134,NODE 136,AIRLOOP AIR_HANDLERS-573_9_BLK
! <#Nodes on Supply Air Path>,<Number of Nodes>
! <Supply Air Path Node>,<Node Type>,<Node Count>,<Node Name>,<AirLoopHVAC Name>
#Nodes on Supply Air Path,2
   Supply Air Path Node,Inlet Node,1,NODE 134,AIRLOOP AIR_HANDLERS-573_9_BLK
   Supply Air Path Node,Outlet Node,2,NODE 136,AIRLOOP AIR_HANDLERS-573_9_BLK
! ===============================================================
! <#Return Air Paths>,<Number of Return Air Paths>
 #Return Air Paths,50
! <Return Air Path>,<Return Air Path Count>,<Return Air Path Name>,<AirLoopHVAC Name>
! <#Components on Return Air Path>,<Number of Components>
! <Return Air Path Component>,<Component Count>,<Component Type>,<Component Name>,<AirLoopHVAC Name>
! <#Inlet Nodes on Return Air Path Component>,<Number of Nodes>
! <Return Air Path Component Nodes>,<Node Count>,<Component Type>,<Component Name>,<Inlet Node Name>,<Outlet Node Name>,<AirLoopHVAC Name>
 Return Air Path,1,AIRLOOP AIR_HANDLERS-573_10_BLK RETURN PATH,AIRLOOP AIR_HANDLERS-573_10_BLK
   #Components on Return Air Path,1
   Return Air Path Component,1,AIRLOOPHVAC:ZONEMIXER,AIR LOOP HVAC ZONE MIXER 10,AIRLOOP AIR_HANDLERS-573_10_BLK
     #Inlet Nodes on Return Air Path Component,1
     Return Air Path Component Nodes,1,AIRLOOPHVAC:ZONEMIXER,AIR LOOP HVAC ZONE MIXER 10,NODE 149,NODE 144,AIRLOOP AIR_HANDLERS-573_10_BLK
[...]
 Non-Parent Node Connection,AIR LOOP HVAC UNITARY HEAT PUMP AIR TO AIR 39 COOLING COIL - HEATING COIL NODE,COIL:HEATING:DX:SINGLESPEED,COIL HEATING DX SINGLE SPEED 39,Inlet,1
 Non-Parent Node Connection,AIR LOOP HVAC UNITARY HEAT PUMP AIR TO AIR 39 HEATING COIL - SUPPLEMENTAL COIL NODE,COIL:HEATING:DX:SINGLESPEED,COIL HEATING DX SINGLE SPEED 39,Outlet,1
 Non-Parent Node Connection,AIR LOOP HVAC UNITARY HEAT PUMP AIR TO AIR 3 COOLING COIL - HEATING COIL NODE,COIL:HEATING:DX:SINGLESPEED,COIL HEATING DX SINGLE SPEED 3,Inlet,1
 Non-Parent Node Connection,AIR LOOP HVAC UNITARY HEAT PUMP AIR TO AIR 3 HEATING COIL - SUPPLEMENTAL COIL NODE,COIL:HEATING:DX:SINGLESPEED,COIL HEATING DX SINGLE SPEED 3,Outlet,1
 Non-Parent Node Connection,AIR LOOP HVAC UNITARY HEAT PUMP AIR TO AIR 40 COOLING COIL - HEATING COIL NODE,COIL:HEATING:DX:SINGLESPEED,COIL HEATING DX SINGLE SPEED 40,Inlet,1
 Non-Parent Node Connection,AIR LOOP HVAC UNITARY HEAT PUMP AIR TO AIR 40 HEATING COIL - SUPPLEMENTAL COIL NODE,COIL:HEATING:DX:SINGLESPEED,COIL HEATING DX SINGLE SPEED 40,Outlet,1
 Non-Parent Node Connection,AIR LOOP HVAC UNITARY HEAT PUMP AIR TO AIR 41 COOLING COIL - HEATING COIL NODE,COIL:HEATING:DX:SINGLESPEED,COIL HEATING DX SINGLE SPEED 41,Inlet,1
 Non-Parent Node Connection,AIR LOOP HVAC UNITARY HEAT PUMP AIR TO AIR 41 HEATING COIL - SUPPLEMENTAL COIL NODE,COIL:HEATING:DX:SINGLESPEED,COIL HEATING DX SINGLE SPEED 41,Outlet,1
 Non-Parent Node Connection,AIR LOOP HVAC UNITARY HEAT PUMP AIR TO AIR 42 COOLING COIL - HEATING COIL NODE,COIL:HEATING:DX:SINGLESPEED,COIL HEATING DX SINGLE SPEED 42,Inlet,1
 Non-Parent Node Connection,AIR LOOP HVAC UNITARY HEAT PUMP AIR TO AIR 42 HEATING COIL - SUPPLEMENTAL COIL NODE,COIL:HEATING:DX:SINGLESPEED,COIL HEATING DX SINGLE SPEED 42,Outlet,1
 Non-Parent Node Connection,AIR LOOP HVAC UNITARY HEAT PUMP AIR TO AIR 43 COOLING COIL - HEATING COIL NODE,COIL:HEATING:DX:SINGLESPEED,COIL HEATING DX SINGLE SPEED 43,Inlet,1
 Non-Parent Node Connection,AIR LOOP HVAC UNITARY HEAT PUMP AIR TO AIR 43 HEATING COIL - SUPPLEMENTAL COIL NODE,COIL:HEATING:DX:SINGLESPEED,COIL HEATING DX SINGLE SPEED 43,Outlet,1
 Non-Parent Node Connection,AIR LOOP HVAC UNITARY HEAT PUMP AIR TO AIR 44 COOLING COIL - HEATING COIL NODE,COIL:HEATING:DX:SINGLESPEED,COIL HEATING DX SINGLE SPEED 44,Inlet,1
 Non-Parent Node Connection,AIR LOOP HVAC UNITARY HEAT PUMP AIR TO AIR 44 HEATING COIL - SUPPLEMENTAL COIL NODE,COIL:HEATING:DX:SINGLESPEED,COIL HEATING DX SINGLE SPEED 44,Outlet,1
 Non-Parent Node Connection,AIR LOOP HVAC UNITARY HEAT PUMP AIR TO AIR 45 COOLING COIL - HEATING COIL NODE,COIL:HEATING:DX:SINGLESPEED,COIL HEATING DX SINGLE SPEED 45,Inlet,1
 Non-Parent Node Connection,AIR LOOP HVAC UNITARY HEAT PUMP AIR TO AIR 45 HEATING COIL - SUPPLEMENTAL COIL NODE,COIL:HEATING:DX:SINGLESPEED,COIL HEATING DX SINGLE SPEED 45,Outlet,1
 Non-Parent Node Connection,AIR LOOP HVAC UNITARY HEAT PUMP AIR TO AIR 46 COOLING COIL - HEATING COIL NODE,COIL:HEATING:DX:SINGLESPEED,COIL HEATING DX SINGLE SPEED 46,Inlet,1
 Non-Parent Node Connection,AIR LOOP HVAC UNITARY HEAT PUMP AIR TO AIR 46 HEATING COIL - SUPPLEMENTAL COIL NODE,COIL:HEATING:DX:SINGLESPEED,COIL HEATING DX SINGLE SPEED 46,Outlet,1
 Non-Parent Node Connection,AIR LOOP HVAC UNITARY HEAT PUMP AIR TO AIR 47 COOLING COIL - HEATING COIL NODE,COIL:HEATING:DX:SINGLESPEED,COIL HEATING DX SINGLE SPEED 47,Inlet,1
 Non-Parent Node Connection,AIR LOOP HVAC UNITARY HEAT PUMP AIR TO AIR 47 HEATING COIL - SUPPLEMENTAL COIL NODE,COIL:HEATING:DX:SINGLESPEED,COIL HEATING DX SINGLE SPEED 47,Outlet,1
 Non-Parent Node Connection,AIR LOOP HVAC UNITARY HEAT PUMP AIR TO AIR 48 COOLING COIL - HEATING COIL NODE,COIL:HEATING:DX:SINGLESPEED,COIL HEATING DX SINGLE SPEED 48,Inlet,1
 Non-Parent Node Connection,AIR LOOP HVAC UNITARY HEAT PUMP AIR TO AIR 48 HEATING COIL - SUPPLEMENTAL COIL NODE,COIL:HEATING:DX:SINGLESPEED,COIL HEATING DX SINGLE SPEED 48,Outlet,1
 Non-Parent Node Connection,AIR LOOP HVAC UNITARY HEAT PUMP AIR TO AIR 49 COOLING COIL - HEATING COIL NODE,COIL:HEATING:DX:SINGLESPEED,COIL HEATING DX SINGLE SPEED 49,Inlet,1
 Non-Parent Node Connection,AIR LOOP HVAC UNITARY HEAT PUMP AIR TO AIR 49 HEATING COIL - SUPPLEMENTAL COIL NODE,COIL:HEATING:DX:SINGLESPEED,COIL HEATING DX SINGLE SPEED 49,Outlet,1
 Non-Parent Node Connection,AIR LOOP HVAC UNITARY HEAT PUMP AIR TO AIR 4 COOLING COIL - HEATING COIL NODE,COIL:HEATING:DX:SINGLESPEED,COIL HEATING DX SINGLE SPEED 4,Inlet,1
 Non-Parent Node Connection,AIR LOOP HVAC UNITARY HEAT PUMP AIR TO AIR 4 HEATING COIL - SUPPLEMENTAL COIL NODE,COIL:HEATING:DX:SINGLESPEED,COIL HEATING DX SINGLE SPEED 4,Outlet,1
 Non-Parent Node Connection,AIR LOOP HVAC UNITARY HEAT PUMP AIR TO AIR 50 COOLING COIL - HEATING COIL NODE,COIL:HEATING:DX:SINGLESPEED,COIL HEATING DX SINGLE SPEED 50,Inlet,1
 Non-Parent Node Connection,AIR LOOP HVAC UNITARY HEAT PUMP AIR TO AIR 50 HEATING COIL - SUPPLEMENTAL COIL NODE,COIL:HEATING:DX:SINGLESPEED,COIL HEATING DX SINGLE SPEED 50,Outlet,1
 Non-Parent Node Connection,AIR LOOP HVAC UNITARY HEAT PUMP AIR TO AIR 5 COOLING COIL - HEATING COIL NODE,COIL:HEATING:DX:SINGLESPEED,COIL HEATING DX SINGLE SPEED 5,Inlet,1
 Non-Parent Node Connection,AIR LOOP HVAC UNITARY HEAT PUMP AIR TO AIR 5 HEATING COIL - SUPPLEMENTAL COIL NODE,COIL:HEATING:DX:SINGLESPEED,COIL HEATING DX SINGLE SPEED 5,Outlet,1
 Non-Parent Node Connection,AIR LOOP HVAC UNITARY HEAT PUMP AIR TO AIR 6 COOLING COIL - HEATING COIL NODE,COIL:HEATING:DX:SINGLESPEED,COIL HEATING DX SINGLE SPEED 6,Inlet,1
 Non-Parent Node Connection,AIR LOOP HVAC UNITARY HEAT PUMP AIR TO AIR 6 HEATING COIL - SUPPLEMENTAL COIL NODE,COIL:HEATING:DX:SINGLESPEED,COIL HEATING DX SINGLE SPEED 6,Outlet,1
 Non-Parent Node Connection,AIR LOOP HVAC UNITARY HEAT PUMP AIR TO AIR 7 COOLING COIL - HEATING COIL NODE,COIL:HEATING:DX:SINGLESPEED,COIL HEATING DX SINGLE SPEED 7,Inlet,1
 Non-Parent Node Connection,AIR LOOP HVAC UNITARY HEAT PUMP AIR TO AIR 7 HEATING COIL - SUPPLEMENTAL COIL NODE,COIL:HEATING:DX:SINGLESPEED,COIL HEATING DX SINGLE SPEED 7,Outlet,1
 Non-Parent Node Connection,AIR LOOP HVAC UNITARY HEAT PUMP AIR TO AIR 8 COOLING COIL - HEATING COIL NODE,COIL:HEATING:DX:SINGLESPEED,COIL HEATING DX SINGLE SPEED 8,Inlet,1
 Non-Parent Node Connection,AIR LOOP HVAC UNITARY HEAT PUMP AIR TO AIR 8 HEATING COIL - SUPPLEMENTAL COIL NODE,COIL:HEATING:DX:SINGLESPEED,COIL HEATING DX SINGLE SPEED 8,Outlet,1
 Non-Parent Node Connection,AIR LOOP HVAC UNITARY HEAT PUMP AIR TO AIR 9 COOLING COIL - HEATING COIL NODE,COIL:HEATING:DX:SINGLESPEED,COIL HEATING DX SINGLE SPEED 9,Inlet,1
 Non-Parent Node Connection,AIR LOOP HVAC UNITARY HEAT PUMP AIR TO AIR 9 HEATING COIL - SUPPLEMENTAL COIL NODE,COIL:HEATING:DX:SINGLESPEED,COIL HEATING DX SINGLE SPEED 9,Outlet,1
 Non-Parent Node Connection,AIR LOOP HVAC UNITARY HEAT PUMP AIR TO AIR 10 HEATING COIL - SUPPLEMENTAL COIL NODE,COIL:HEATING:ELECTRIC,COIL HEATING ELECTRIC 10,Inlet,1
 Non-Parent Node Connection,NODE 142,COIL:HEATING:ELECTRIC,COIL HEATING ELECTRIC 10,Outlet,1
 Non-Parent Node Connection,AIR LOOP HVAC UNITARY HEAT PUMP AIR TO AIR 11 HEATING COIL - SUPPLEMENTAL COIL NODE,COIL:HEATING:ELECTRIC,COIL HEATING ELECTRIC 11,Inlet,1
 Non-Parent Node Connection,NODE 151,COIL:HEATING:ELECTRIC,COIL HEATING ELECTRIC 11,Outlet,1
 Non-Parent Node Connection,AIR LOOP HVAC UNITARY HEAT PUMP AIR TO AIR 12 HEATING COIL - SUPPLEMENTAL COIL NODE,COIL:HEATING:ELECTRIC,COIL HEATING ELECTRIC 12,Inlet,1
 Non-Parent Node Connection,NODE 160,COIL:HEATING:ELECTRIC,COIL HEATING ELECTRIC 12,Outlet,1
 Non-Parent Node Connection,AIR LOOP HVAC UNITARY HEAT PUMP AIR TO AIR 13 HEATING COIL - SUPPLEMENTAL COIL NODE,COIL:HEATING:ELECTRIC,COIL HEATING ELECTRIC 13,Inlet,1
 Non-Parent Node Connection,NODE 169,COIL:HEATING:ELECTRIC,COIL HEATING ELECTRIC 13,Outlet,1
 Non-Parent Node Connection,AIR LOOP HVAC UNITARY HEAT PUMP AIR TO AIR 14 HEATING COIL - SUPPLEMENTAL COIL NODE,COIL:HEATING:ELECTRIC,COIL HEATING ELECTRIC 14,Inlet,1
 Non-Parent Node Connection,NODE 178,COIL:HEATING:ELECTRIC,COIL HEATING ELECTRIC 14,Outlet,1
 Non-Parent Node Connection,AIR LOOP HVAC UNITARY HEAT PUMP AIR TO AIR 15 HEATING COIL - SUPPLEMENTAL COIL NODE,COIL:HEATING:ELECTRIC,COIL HEATING ELECTRIC 15,Inlet,1
 Non-Parent Node Connection,NODE 187,COIL:HEATING:ELECTRIC,COIL HEATING ELECTRIC 15,Outlet,1
 Non-Parent Node Connection,AIR LOOP HVAC UNITARY HEAT PUMP AIR TO AIR 16 HEATING COIL - SUPPLEMENTAL COIL NODE,COIL:HEATING:ELECTRIC,COIL HEATING ELECTRIC 16,Inlet,1
 Non-Parent Node Connection,NODE 196,COIL:HEATING:ELECTRIC,COIL HEATING ELECTRIC 16,Outlet,1
 Non-Parent Node Connection,AIR LOOP HVAC UNITARY HEAT PUMP AIR TO AIR 17 HEATING COIL - SUPPLEMENTAL COIL NODE,COIL:HEATING:ELECTRIC,COIL HEATING ELECTRIC 17,Inlet,1
 Non-Parent Node Connection,NODE 205,COIL:HEATING:ELECTRIC,COIL HEATING ELECTRIC 17,Outlet,1
 Non-Parent Node Connection,AIR LOOP HVAC UNITARY HEAT PUMP AIR TO AIR 18 HEATING COIL - SUPPLEMENTAL COIL NODE,COIL:HEATING:ELECTRIC,COIL HEATING ELECTRIC 18,Inlet,1
 Non-Parent Node Connection,NODE 214,COIL:HEATING:ELECTRIC,COIL HEATING ELECTRIC 18,Outlet,1
 Non-Parent Node Connection,AIR LOOP HVAC UNITARY HEAT PUMP AIR TO AIR 19 HEATING COIL - SUPPLEMENTAL COIL NODE,COIL:HEATING:ELECTRIC,COIL HEATING ELECTRIC 19,Inlet,1
 Non-Parent Node Connection,NODE 223,COIL:HEATING:ELECTRIC,COIL HEATING ELECTRIC 19,Outlet,1
 Non-Parent Node Connection,AIR LOOP HVAC UNITARY HEAT PUMP AIR TO AIR 1 HEATING COIL - SUPPLEMENTAL COIL NODE,COIL:HEATING:ELECTRIC,COIL HEATING ELECTRIC 1,Inlet,1
 Non-Parent Node Connection,NODE 61,COIL:HEATING:ELECTRIC,COIL HEATING ELECTRIC 1,Outlet,1
 Non-Parent Node Connection,AIR LOOP HVAC UNITARY HEAT PUMP AIR TO AIR 20 HEATING COIL - SUPPLEMENTAL COIL NODE,COIL:HEATING:ELECTRIC,COIL HEATING ELECTRIC 20,Inlet,1
 Non-Parent Node Connection,NODE 232,COIL:HEATING:ELECTRIC,COIL HEATING ELECTRIC 20,Outlet,1
 Non-Parent Node Connection,AIR LOOP HVAC UNITARY HEAT PUMP AIR TO AIR 21 HEATING COIL - SUPPLEMENTAL COIL NODE,COIL:HEATING:ELECTRIC,COIL HEATING ELECTRIC 21,Inlet,1
 Non-Parent Node Connection,NODE 241,COIL:HEATING:ELECTRIC,COIL HEATING ELECTRIC 21,Outlet,1
 Non-Parent Node Connection,AIR LOOP HVAC UNITARY HEAT PUMP AIR TO AIR 22 HEATING COIL - SUPPLEMENTAL COIL NODE,COIL:HEATING:ELECTRIC,COIL HEATING ELECTRIC 22,Inlet,1
 Non-Parent Node Connection,NODE 250,COIL:HEATING:ELECTRIC,COIL HEATING ELECTRIC 22,Outlet,1
 Non-Parent Node Connection,AIR LOOP HVAC UNITARY HEAT PUMP AIR TO AIR 23 HEATING COIL - SUPPLEMENTAL COIL NODE,COIL:HEATING:ELECTRIC,COIL HEATING ELECTRIC 23,Inlet,1
 Non-Parent Node Connection,NODE 259,COIL:HEATING:ELECTRIC,COIL HEATING ELECTRIC 23,Outlet,1
 Non-Parent Node Connection,AIR LOOP HVAC UNITARY HEAT PUMP AIR TO AIR 24 HEATING COIL - SUPPLEMENTAL COIL NODE,COIL:HEATING:ELECTRIC,COIL HEATING ELECTRIC 24,Inlet,1
 Non-Parent Node Connection,NODE 268,COIL:HEATING:ELECTRIC,COIL HEATING ELECTRIC 24,Outlet,1
 Non-Parent Node Connection,AIR LOOP HVAC UNITARY HEAT PUMP AIR TO AIR 25 HEATING COIL - SUPPLEMENTAL COIL NODE,COIL:HEATING:ELECTRIC,COIL HEATING ELECTRIC 25,Inlet,1
 Non-Parent Node Connection,NODE 277,COIL:HEATING:ELECTRIC,COIL HEATING ELECTRIC 25,Outlet,1
 Non-Parent Node Connection,AIR LOOP HVAC UNITARY HEAT PUMP AIR TO AIR 26 HEATING COIL - SUPPLEMENTAL COIL NODE,COIL:HEATING:ELECTRIC,COIL HEATING ELECTRIC 26,Inlet,1
 Non-Parent Node Connection,NODE 286,COIL:HEATING:ELECTRIC,COIL HEATING ELECTRIC 26,Outlet,1
 Non-Parent Node Connection,AIR LOOP HVAC UNITARY HEAT PUMP AIR TO AIR 27 HEATING COIL - SUPPLEMENTAL COIL NODE,COIL:HEATING:ELECTRIC,COIL HEATING ELECTRIC 27,Inlet,1
 Non-Parent Node Connection,NODE 295,COIL:HEATING:ELECTRIC,COIL HEATING ELECTRIC 27,Outlet,1
 Non-Parent Node Connection,AIR LOOP HVAC UNITARY HEAT PUMP AIR TO AIR 28 HEATING COIL - SUPPLEMENTAL COIL NODE,COIL:HEATING:ELECTRIC,COIL HEATING ELECTRIC 28,Inlet,1
 Non-Parent Node Connection,NODE 304,COIL:HEATING:ELECTRIC,COIL HEATING ELECTRIC 28,Outlet,1
 Non-Parent Node Connection,AIR LOOP HVAC UNITARY HEAT PUMP AIR TO AIR 29 HEATING COIL - SUPPLEMENTAL COIL NODE,COIL:HEATING:ELECTRIC,COIL HEATING ELECTRIC 29,Inlet,1
 Non-Parent Node Connection,NODE 313,COIL:HEATING:ELECTRIC,COIL HEATING ELECTRIC 29,Outlet,1
 Non-Parent Node Connection,AIR LOOP HVAC UNITARY HEAT PUMP AIR TO AIR 2 HEATING COIL - SUPPLEMENTAL COIL NODE,COIL:HEATING:ELECTRIC,COIL HEATING ELECTRIC 2,Inlet,1
 Non-Parent Node Connection,NODE 70,COIL:HEATING:ELECTRIC,COIL HEATING ELECTRIC 2,Outlet,1
 Non-Parent Node Connection,AIR LOOP HVAC UNITARY HEAT PUMP AIR TO AIR 30 HEATING COIL - SUPPLEMENTAL COIL NODE,COIL:HEATING:ELECTRIC,COIL HEATING ELECTRIC 30,Inlet,1
 Non-Parent Node Connection,NODE 322,COIL:HEATING:ELECTRIC,COIL HEATING ELECTRIC 30,Outlet,1
 Non-Parent Node Connection,AIR LOOP HVAC UNITARY HEAT PUMP AIR TO AIR 31 HEATING COIL - SUPPLEMENTAL COIL NODE,COIL:HEATING:ELECTRIC,COIL HEATING ELECTRIC 31,Inlet,1
 Non-Parent Node Connection,NODE 331,COIL:HEATING:ELECTRIC,COIL HEATING ELECTRIC 31,Outlet,1
 Non-Parent Node Connection,AIR LOOP HVAC UNITARY HEAT PUMP AIR TO AIR 32 HEATING COIL - SUPPLEMENTAL COIL NODE,COIL:HEATING:ELECTRIC,COIL HEATING ELECTRIC 32,Inlet,1
 Non-Parent Node Connection,NODE 340,COIL:HEATING:ELECTRIC,COIL HEATING ELECTRIC 32,Outlet,1
 Non-Parent Node Connection,AIR LOOP HVAC UNITARY HEAT PUMP AIR TO AIR 33 HEATING COIL - SUPPLEMENTAL COIL NODE,COIL:HEATING:ELECTRIC,COIL HEATING ELECTRIC 33,Inlet,1
 Non-Parent Node Connection,NODE 349,COIL:HEATING:ELECTRIC,COIL HEATING ELECTRIC 33,Outlet,1
 Non-Parent Node Connection,AIR LOOP HVAC UNITARY HEAT PUMP AIR TO AIR 34 HEATING COIL - SUPPLEMENTAL COIL NODE,COIL:HEATING:ELECTRIC,COIL HEATING ELECTRIC 34,Inlet,1
 Non-Parent Node Connection,NODE 358,COIL:HEATING:ELECTRIC,COIL HEATING ELECTRIC 34,Outlet,1
 Non-Parent Node Connection,AIR LOOP HVAC UNITARY HEAT PUMP AIR TO AIR 35 HEATING COIL - SUPPLEMENTAL COIL NODE,COIL:HEATING:ELECTRIC,COIL HEATING ELECTRIC 35,Inlet,1
 Non-Parent Node Connection,NODE 367,COIL:HEATING:ELECTRIC,COIL HEATING ELECTRIC 35,Outlet,1
 Non-Parent Node Connection,AIR LOOP HVAC UNITARY HEAT PUMP AIR TO AIR 36 HEATING COIL - SUPPLEMENTAL COIL NODE,COIL:HEATING:ELECTRIC,COIL HEATING ELECTRIC 36,Inlet,1
 Non-Parent Node Connection,NODE 376,COIL:HEATING:ELECTRIC,COIL HEATING ELECTRIC 36,Outlet,1
 Non-Parent Node Connection,AIR LOOP HVAC UNITARY HEAT PUMP AIR TO AIR 37 HEATING COIL - SUPPLEMENTAL COIL NODE,COIL:HEATING:ELECTRIC,COIL HEATING ELECTRIC 37,Inlet,1
 Non-Parent Node Connection,NODE 385,COIL:HEATING:ELECTRIC,COIL HEATING ELECTRIC 37,Outlet,1
 Non-Parent Node Connection,AIR LOOP HVAC UNITARY HEAT PUMP AIR TO AIR 38 HEATING COIL - SUPPLEMENTAL COIL NODE,COIL:HEATING:ELECTRIC,COIL HEATING ELECTRIC 38,Inlet,1
 Non-Parent Node Connection,NODE 394,COIL:HEATING:ELECTRIC,COIL HEATING ELECTRIC 38,Outlet,1
 Non-Parent Node Connection,AIR LOOP HVAC UNITARY HEAT PUMP AIR TO AIR 39 HEATING COIL - SUPPLEMENTAL COIL NODE,COIL:HEATING:ELECTRIC,COIL HEATING ELECTRIC 39,Inlet,1
 Non-Parent Node Connection,NODE 403,COIL:HEATING:ELECTRIC,COIL HEATING ELECTRIC 39,Outlet,1
 Non-Parent Node Connection,AIR LOOP HVAC UNITARY HEAT PUMP AIR TO AIR 3 HEATING COIL - SUPPLEMENTAL COIL NODE,COIL:HEATING:ELECTRIC,COIL HEATING ELECTRIC 3,Inlet,1
 Non-Parent Node Connection,NODE 79,COIL:HEATING:ELECTRIC,COIL HEATING ELECTRIC 3,Outlet,1
 Non-Parent Node Connection,AIR LOOP HVAC UNITARY HEAT PUMP AIR TO AIR 40 HEATING COIL - SUPPLEMENTAL COIL NODE,COIL:HEATING:ELECTRIC,COIL HEATING ELECTRIC 40,Inlet,1
 Non-Parent Node Connection,NODE 412,COIL:HEATING:ELECTRIC,COIL HEATING ELECTRIC 40,Outlet,1
 Non-Parent Node Connection,AIR LOOP HVAC UNITARY HEAT PUMP AIR TO AIR 41 HEATING COIL - SUPPLEMENTAL COIL NODE,COIL:HEATING:ELECTRIC,COIL HEATING ELECTRIC 41,Inlet,1
 Non-Parent Node Connection,NODE 421,COIL:HEATING:ELECTRIC,COIL HEATING ELECTRIC 41,Outlet,1
 Non-Parent Node Connection,AIR LOOP HVAC UNITARY HEAT PUMP AIR TO AIR 42 HEATING COIL - SUPPLEMENTAL COIL NODE,COIL:HEATING:ELECTRIC,COIL HEATING ELECTRIC 42,Inlet,1
 Non-Parent Node Connection,NODE 430,COIL:HEATING:ELECTRIC,COIL HEATING ELECTRIC 42,Outlet,1
 Non-Parent Node Connection,AIR LOOP HVAC UNITARY HEAT PUMP AIR TO AIR 43 HEATING COIL - SUPPLEMENTAL COIL NODE,COIL:HEATING:ELECTRIC,COIL HEATING ELECTRIC 43,Inlet,1
 Non-Parent Node Connection,NODE 439,COIL:HEATING:ELECTRIC,COIL HEATING ELECTRIC 43,Outlet,1
 Non-Parent Node Connection,AIR LOOP HVAC UNITARY HEAT PUMP AIR TO AIR 44 HEATING COIL - SUPPLEMENTAL COIL NODE,COIL:HEATING:ELECTRIC,COIL HEATING ELECTRIC 44,Inlet,1
 Non-Parent Node Connection,NODE 448,COIL:HEATING:ELECTRIC,COIL HEATING ELECTRIC 44,Outlet,1
 Non-Parent Node Connection,AIR LOOP HVAC UNITARY HEAT PUMP AIR TO AIR 45 HEATING COIL - SUPPLEMENTAL COIL NODE,COIL:HEATING:ELECTRIC,COIL HEATING ELECTRIC 45,Inlet,1
 Non-Parent Node Connection,NODE 457,COIL:HEATING:ELECTRIC,COIL HEATING ELECTRIC 45,Outlet,1
 Non-Parent Node Connection,AIR LOOP HVAC UNITARY HEAT PUMP AIR TO AIR 46 HEATING COIL - SUPPLEMENTAL COIL NODE,COIL:HEATING:ELECTRIC,COIL HEATING ELECTRIC 46,Inlet,1
 Non-Parent Node Connection,NODE 466,COIL:HEATING:ELECTRIC,COIL HEATING ELECTRIC 46,Outlet,1
 Non-Parent Node Connection,AIR LOOP HVAC UNITARY HEAT PUMP AIR TO AIR 47 HEATING COIL - SUPPLEMENTAL COIL NODE,COIL:HEATING:ELECTRIC,COIL HEATING ELECTRIC 47,Inlet,1
 Non-Parent Node Connection,NODE 475,COIL:HEATING:ELECTRIC,COIL HEATING ELECTRIC 47,Outlet,1
 Non-Parent Node Connection,AIR LOOP HVAC UNITARY HEAT PUMP AIR TO AIR 48 HEATING COIL - SUPPLEMENTAL COIL NODE,COIL:HEATING:ELECTRIC,COIL HEATING ELECTRIC 48,Inlet,1
 Non-Parent Node Connection,NODE 484,COIL:HEATING:ELECTRIC,COIL HEATING ELECTRIC 48,Outlet,1
 Non-Parent Node Connection,AIR LOOP HVAC UNITARY HEAT PUMP AIR TO AIR 49 HEATING COIL - SUPPLEMENTAL COIL NODE,COIL:HEATING:ELECTRIC,COIL HEATING ELECTRIC 49,Inlet,1
 Non-Parent Node Connection,NODE 493,COIL:HEATING:ELECTRIC,COIL HEATING ELECTRIC 49,Outlet,1
 Non-Parent Node Connection,AIR LOOP HVAC UNITARY HEAT PUMP AIR TO AIR 4 HEATING COIL - SUPPLEMENTAL COIL NODE,COIL:HEATING:ELECTRIC,COIL HEATING ELECTRIC 4,Inlet,1
 Non-Parent Node Connection,NODE 88,COIL:HEATING:ELECTRIC,COIL HEATING ELECTRIC 4,Outlet,1
 Non-Parent Node Connection,AIR LOOP HVAC UNITARY HEAT PUMP AIR TO AIR 50 HEATING COIL - SUPPLEMENTAL COIL NODE,COIL:HEATING:ELECTRIC,COIL HEATING ELECTRIC 50,Inlet,1
 Non-Parent Node Connection,NODE 502,COIL:HEATING:ELECTRIC,COIL HEATING ELECTRIC 50,Outlet,1
 Non-Parent Node Connection,AIR LOOP HVAC UNITARY HEAT PUMP AIR TO AIR 5 HEATING COIL - SUPPLEMENTAL COIL NODE,COIL:HEATING:ELECTRIC,COIL HEATING ELECTRIC 5,Inlet,1
 Non-Parent Node Connection,NODE 97,COIL:HEATING:ELECTRIC,COIL HEATING ELECTRIC 5,Outlet,1
 Non-Parent Node Connection,AIR LOOP HVAC UNITARY HEAT PUMP AIR TO AIR 6 HEATING COIL - SUPPLEMENTAL COIL NODE,COIL:HEATING:ELECTRIC,COIL HEATING ELECTRIC 6,Inlet,1
 Non-Parent Node Connection,NODE 106,COIL:HEATING:ELECTRIC,COIL HEATING ELECTRIC 6,Outlet,1
 Non-Parent Node Connection,AIR LOOP HVAC UNITARY HEAT PUMP AIR TO AIR 7 HEATING COIL - SUPPLEMENTAL COIL NODE,COIL:HEATING:ELECTRIC,COIL HEATING ELECTRIC 7,Inlet,1
 Non-Parent Node Connection,NODE 115,COIL:HEATING:ELECTRIC,COIL HEATING ELECTRIC 7,Outlet,1
 Non-Parent Node Connection,AIR LOOP HVAC UNITARY HEAT PUMP AIR TO AIR 8 HEATING COIL - SUPPLEMENTAL COIL NODE,COIL:HEATING:ELECTRIC,COIL HEATING ELECTRIC 8,Inlet,1
 Non-Parent Node Connection,NODE 124,COIL:HEATING:ELECTRIC,COIL HEATING ELECTRIC 8,Outlet,1
 Non-Parent Node Connection,AIR LOOP HVAC UNITARY HEAT PUMP AIR TO AIR 9 HEATING COIL - SUPPLEMENTAL COIL NODE,COIL:HEATING:ELECTRIC,COIL HEATING ELECTRIC 9,Inlet,1
 Non-Parent Node Connection,NODE 133,COIL:HEATING:ELECTRIC,COIL HEATING ELECTRIC 9,Outlet,1
 Non-Parent Node Connection,NODE 1,PUMP:VARIABLESPEED,PUMP VARIABLE SPEED 1,Inlet,1
 Non-Parent Node Connection,NODE 7,PUMP:VARIABLESPEED,PUMP VARIABLE SPEED 1,Outlet,1
